/*---------------------------------------------------------------------------*\
  =========                 |
  \\      /  F ield         | OpenFOAM: The Open Source CFD Toolbox
   \\    /   O peration     | Website:  https://openfoam.org
    \\  /    A nd           | Version:  6
     \\/     M anipulation  |
\*---------------------------------------------------------------------------*/
Build  : 6-e29811f5dff8
Exec   : buoyantPimpleFoam -case /home/mamitsu/OpenFOAM/mamitsu-6/run/aircond5/play/case1
Date   : Nov 23 2020
Time   : 01:33:15
Host   : "mamitsu-desktop"
PID    : 25952
I/O    : uncollated
Case   : /home/mamitsu/OpenFOAM/mamitsu-6/run/aircond5/play/case1
nProcs : 1
sigFpe : Enabling floating point exception trapping (FOAM_SIGFPE).
fileModificationChecking : Monitoring run-time modified files using timeStampMaster (fileModificationSkew 10)
allowSystemOperations : Allowing user-supplied system call operations

// * * * * * * * * * * * * * * * * * * * * * * * * * * * * * * * * * * * * * //
Create time

Create mesh for time = 710


PIMPLE: No convergence criteria found


PIMPLE: Operating solver in PISO mode

Reading thermophysical properties

Selecting thermodynamics package
{
    type            heRhoThermo;
    mixture         pureMixture;
    transport       const;
    thermo          hConst;
    equationOfState perfectGas;
    specie          specie;
    energy          sensibleEnthalpy;
}

Reading field U

Reading/calculating face flux field phi

Creating turbulence model

Selecting turbulence model type RAS
Selecting RAS turbulence model kEpsilon
RAS
{
    RASModel        kEpsilon;
    turbulence      on;
    printCoeffs     on;
    Cmu             0.09;
    C1              1.44;
    C2              1.92;
    C3              0;
    sigmak          1;
    sigmaEps        1.3;
}


Reading g

Reading hRef
Calculating field g.h

Reading field p_rgh

Creating field dpdt

Creating field kinetic energy K

No MRF models present

Radiation model not active: radiationProperties not found
Selecting radiationModel none
No finite volume options present
Courant Number mean: 0.00518774 max: 0.0226897

Starting time loop

Courant Number mean: 0.00518774 max: 0.0226897
Time = 710.01

diagonal:  Solving for rho, Initial residual = 0, Final residual = 0, No Iterations 0
DILUPBiCGStab:  Solving for Ux, Initial residual = 0.00134422, Final residual = 1.95607e-08, No Iterations 1
DILUPBiCGStab:  Solving for Uy, Initial residual = 0.0800092, Final residual = 5.65789e-07, No Iterations 1
DILUPBiCGStab:  Solving for h, Initial residual = 1.57146e-05, Final residual = 1.1765e-10, No Iterations 1
DICPCG:  Solving for p_rgh, Initial residual = 0.986664, Final residual = 0.00947992, No Iterations 3
diagonal:  Solving for rho, Initial residual = 0, Final residual = 0, No Iterations 0
time step continuity errors : sum local = 1.13236e-05, global = -1.36938e-07, cumulative = -1.36938e-07
DICPCG:  Solving for p_rgh, Initial residual = 0.20161, Final residual = 7.3468e-09, No Iterations 40
diagonal:  Solving for rho, Initial residual = 0, Final residual = 0, No Iterations 0
time step continuity errors : sum local = 3.10696e-10, global = -6.02752e-12, cumulative = -1.36944e-07
DILUPBiCGStab:  Solving for epsilon, Initial residual = 2.0812e-06, Final residual = 2.24452e-11, No Iterations 1
DILUPBiCGStab:  Solving for k, Initial residual = 3.57794e-06, Final residual = 4.37516e-11, No Iterations 1
ExecutionTime = 0 s  ClockTime = 0 s

Courant Number mean: 0.00518755 max: 0.0226966
Time = 710.02

diagonal:  Solving for rho, Initial residual = 0, Final residual = 0, No Iterations 0
DILUPBiCGStab:  Solving for Ux, Initial residual = 7.12015e-05, Final residual = 3.71907e-10, No Iterations 1
DILUPBiCGStab:  Solving for Uy, Initial residual = 0.000236131, Final residual = 1.99988e-09, No Iterations 1
DILUPBiCGStab:  Solving for h, Initial residual = 6.0374e-05, Final residual = 2.70233e-10, No Iterations 1
DICPCG:  Solving for p_rgh, Initial residual = 0.0888412, Final residual = 0.000675785, No Iterations 15
diagonal:  Solving for rho, Initial residual = 0, Final residual = 0, No Iterations 0
time step continuity errors : sum local = 3.39476e-08, global = -4.74073e-10, cumulative = -1.37418e-07
DICPCG:  Solving for p_rgh, Initial residual = 0.000738752, Final residual = 7.53766e-09, No Iterations 33
diagonal:  Solving for rho, Initial residual = 0, Final residual = 0, No Iterations 0
time step continuity errors : sum local = 7.37843e-12, global = -7.23394e-12, cumulative = -1.37425e-07
DILUPBiCGStab:  Solving for epsilon, Initial residual = 1.71896e-06, Final residual = 1.97718e-11, No Iterations 1
DILUPBiCGStab:  Solving for k, Initial residual = 3.02797e-06, Final residual = 3.36524e-11, No Iterations 1
ExecutionTime = 0.01 s  ClockTime = 0 s

Courant Number mean: 0.00518791 max: 0.0226938
Time = 710.03

diagonal:  Solving for rho, Initial residual = 0, Final residual = 0, No Iterations 0
DILUPBiCGStab:  Solving for Ux, Initial residual = 7.60496e-05, Final residual = 5.82782e-10, No Iterations 1
DILUPBiCGStab:  Solving for Uy, Initial residual = 0.000227487, Final residual = 1.90932e-09, No Iterations 1
DILUPBiCGStab:  Solving for h, Initial residual = 3.12255e-05, Final residual = 2.04849e-10, No Iterations 1
DICPCG:  Solving for p_rgh, Initial residual = 0.0443505, Final residual = 0.000409246, No Iterations 17
diagonal:  Solving for rho, Initial residual = 0, Final residual = 0, No Iterations 0
time step continuity errors : sum local = 2.02859e-08, global = 2.58503e-10, cumulative = -1.37166e-07
DICPCG:  Solving for p_rgh, Initial residual = 0.000438512, Final residual = 7.81021e-09, No Iterations 32
diagonal:  Solving for rho, Initial residual = 0, Final residual = 0, No Iterations 0
time step continuity errors : sum local = 1.01217e-11, global = -1.01154e-11, cumulative = -1.37177e-07
DILUPBiCGStab:  Solving for epsilon, Initial residual = 1.74278e-06, Final residual = 1.98189e-11, No Iterations 1
DILUPBiCGStab:  Solving for k, Initial residual = 3.04898e-06, Final residual = 3.35967e-11, No Iterations 1
ExecutionTime = 0.01 s  ClockTime = 0 s

Courant Number mean: 0.0051879 max: 0.0226942
Time = 710.04

diagonal:  Solving for rho, Initial residual = 0, Final residual = 0, No Iterations 0
DILUPBiCGStab:  Solving for Ux, Initial residual = 3.25752e-05, Final residual = 1.97892e-10, No Iterations 1
DILUPBiCGStab:  Solving for Uy, Initial residual = 2.45899e-05, Final residual = 1.30707e-10, No Iterations 1
DILUPBiCGStab:  Solving for h, Initial residual = 3.3662e-05, Final residual = 1.96315e-10, No Iterations 1
DICPCG:  Solving for p_rgh, Initial residual = 0.00183684, Final residual = 1.64061e-05, No Iterations 22
diagonal:  Solving for rho, Initial residual = 0, Final residual = 0, No Iterations 0
time step continuity errors : sum local = 7.94713e-10, global = -3.64464e-12, cumulative = -1.3718e-07
DICPCG:  Solving for p_rgh, Initial residual = 2.22228e-05, Final residual = 3.2392e-09, No Iterations 29
diagonal:  Solving for rho, Initial residual = 0, Final residual = 0, No Iterations 0
time step continuity errors : sum local = 9.22662e-12, global = -9.22662e-12, cumulative = -1.37189e-07
DILUPBiCGStab:  Solving for epsilon, Initial residual = 1.74171e-06, Final residual = 1.97675e-11, No Iterations 1
DILUPBiCGStab:  Solving for k, Initial residual = 3.05442e-06, Final residual = 3.36129e-11, No Iterations 1
ExecutionTime = 0.01 s  ClockTime = 0 s

Courant Number mean: 0.00518786 max: 0.0226942
Time = 710.05

diagonal:  Solving for rho, Initial residual = 0, Final residual = 0, No Iterations 0
DILUPBiCGStab:  Solving for Ux, Initial residual = 1.2276e-05, Final residual = 6.3887e-11, No Iterations 1
DILUPBiCGStab:  Solving for Uy, Initial residual = 1.06742e-05, Final residual = 6.77528e-11, No Iterations 1
DILUPBiCGStab:  Solving for h, Initial residual = 3.38623e-05, Final residual = 1.88892e-10, No Iterations 1
DICPCG:  Solving for p_rgh, Initial residual = 0.00148817, Final residual = 1.08674e-05, No Iterations 22
diagonal:  Solving for rho, Initial residual = 0, Final residual = 0, No Iterations 0
time step continuity errors : sum local = 5.2362e-10, global = 3.27366e-12, cumulative = -1.37186e-07
DICPCG:  Solving for p_rgh, Initial residual = 1.49511e-05, Final residual = 8.06788e-09, No Iterations 28
diagonal:  Solving for rho, Initial residual = 0, Final residual = 0, No Iterations 0
time step continuity errors : sum local = 8.07958e-12, global = -8.07195e-12, cumulative = -1.37194e-07
DILUPBiCGStab:  Solving for epsilon, Initial residual = 1.71165e-06, Final residual = 1.95897e-11, No Iterations 1
DILUPBiCGStab:  Solving for k, Initial residual = 3.03743e-06, Final residual = 3.34588e-11, No Iterations 1
ExecutionTime = 0.01 s  ClockTime = 0 s

Courant Number mean: 0.00518784 max: 0.0226934
Time = 710.06

diagonal:  Solving for rho, Initial residual = 0, Final residual = 0, No Iterations 0
DILUPBiCGStab:  Solving for Ux, Initial residual = 1.98351e-05, Final residual = 1.33426e-10, No Iterations 1
DILUPBiCGStab:  Solving for Uy, Initial residual = 1.14765e-05, Final residual = 8.75647e-11, No Iterations 1
DILUPBiCGStab:  Solving for h, Initial residual = 3.14232e-05, Final residual = 1.8059e-10, No Iterations 1
DICPCG:  Solving for p_rgh, Initial residual = 0.00113307, Final residual = 7.20042e-06, No Iterations 21
diagonal:  Solving for rho, Initial residual = 0, Final residual = 0, No Iterations 0
time step continuity errors : sum local = 3.45755e-10, global = 3.69454e-12, cumulative = -1.37191e-07
DICPCG:  Solving for p_rgh, Initial residual = 8.83989e-06, Final residual = 6.29346e-09, No Iterations 27
diagonal:  Solving for rho, Initial residual = 0, Final residual = 0, No Iterations 0
time step continuity errors : sum local = 5.99913e-12, global = -5.99228e-12, cumulative = -1.37197e-07
DILUPBiCGStab:  Solving for epsilon, Initial residual = 1.69161e-06, Final residual = 1.9327e-11, No Iterations 1
DILUPBiCGStab:  Solving for k, Initial residual = 3.01181e-06, Final residual = 3.32129e-11, No Iterations 1
ExecutionTime = 0.02 s  ClockTime = 0 s

Courant Number mean: 0.00518781 max: 0.0226922
Time = 710.07

diagonal:  Solving for rho, Initial residual = 0, Final residual = 0, No Iterations 0
DILUPBiCGStab:  Solving for Ux, Initial residual = 3.68787e-05, Final residual = 2.12413e-10, No Iterations 1
DILUPBiCGStab:  Solving for Uy, Initial residual = 1.62733e-05, Final residual = 1.28109e-10, No Iterations 1
DILUPBiCGStab:  Solving for h, Initial residual = 2.68678e-05, Final residual = 1.58742e-10, No Iterations 1
DICPCG:  Solving for p_rgh, Initial residual = 0.000644317, Final residual = 3.06952e-06, No Iterations 22
diagonal:  Solving for rho, Initial residual = 0, Final residual = 0, No Iterations 0
time step continuity errors : sum local = 1.47129e-10, global = 4.60602e-12, cumulative = -1.37192e-07
DICPCG:  Solving for p_rgh, Initial residual = 4.03267e-06, Final residual = 7.72222e-09, No Iterations 26
diagonal:  Solving for rho, Initial residual = 0, Final residual = 0, No Iterations 0
time step continuity errors : sum local = 3.14188e-12, global = -3.11751e-12, cumulative = -1.37195e-07
DILUPBiCGStab:  Solving for epsilon, Initial residual = 1.6698e-06, Final residual = 1.90018e-11, No Iterations 1
DILUPBiCGStab:  Solving for k, Initial residual = 2.98317e-06, Final residual = 3.28698e-11, No Iterations 1
ExecutionTime = 0.02 s  ClockTime = 0 s

Courant Number mean: 0.00518778 max: 0.0226907
Time = 710.08

diagonal:  Solving for rho, Initial residual = 0, Final residual = 0, No Iterations 0
DILUPBiCGStab:  Solving for Ux, Initial residual = 4.305e-05, Final residual = 2.50027e-10, No Iterations 1
DILUPBiCGStab:  Solving for Uy, Initial residual = 1.8754e-05, Final residual = 1.47715e-10, No Iterations 1
DILUPBiCGStab:  Solving for h, Initial residual = 2.114e-05, Final residual = 1.30827e-10, No Iterations 1
DICPCG:  Solving for p_rgh, Initial residual = 0.000177137, Final residual = 1.06434e-06, No Iterations 23
diagonal:  Solving for rho, Initial residual = 0, Final residual = 0, No Iterations 0
time step continuity errors : sum local = 5.06919e-11, global = 2.76516e-12, cumulative = -1.37192e-07
DICPCG:  Solving for p_rgh, Initial residual = 1.49728e-06, Final residual = 7.81798e-09, No Iterations 23
diagonal:  Solving for rho, Initial residual = 0, Final residual = 0, No Iterations 0
time step continuity errors : sum local = 4.74895e-13, global = -9.07331e-14, cumulative = -1.37192e-07
DILUPBiCGStab:  Solving for epsilon, Initial residual = 1.65203e-06, Final residual = 1.877e-11, No Iterations 1
DILUPBiCGStab:  Solving for k, Initial residual = 2.95552e-06, Final residual = 3.24926e-11, No Iterations 1
ExecutionTime = 0.02 s  ClockTime = 0 s

Courant Number mean: 0.00518774 max: 0.0226893
Time = 710.09

diagonal:  Solving for rho, Initial residual = 0, Final residual = 0, No Iterations 0
DILUPBiCGStab:  Solving for Ux, Initial residual = 4.0045e-05, Final residual = 2.39658e-10, No Iterations 1
DILUPBiCGStab:  Solving for Uy, Initial residual = 1.86627e-05, Final residual = 1.47096e-10, No Iterations 1
DILUPBiCGStab:  Solving for h, Initial residual = 1.5395e-05, Final residual = 1.05113e-10, No Iterations 1
DICPCG:  Solving for p_rgh, Initial residual = 0.000497261, Final residual = 4.78546e-06, No Iterations 20
diagonal:  Solving for rho, Initial residual = 0, Final residual = 0, No Iterations 0
time step continuity errors : sum local = 2.28238e-10, global = 1.27347e-12, cumulative = -1.37191e-07
DICPCG:  Solving for p_rgh, Initial residual = 5.84614e-06, Final residual = 4.87545e-09, No Iterations 25
diagonal:  Solving for rho, Initial residual = 0, Final residual = 0, No Iterations 0
time step continuity errors : sum local = 2.5984e-12, global = 2.57948e-12, cumulative = -1.37189e-07
DILUPBiCGStab:  Solving for epsilon, Initial residual = 1.65527e-06, Final residual = 1.86429e-11, No Iterations 1
DILUPBiCGStab:  Solving for k, Initial residual = 2.94645e-06, Final residual = 3.23277e-11, No Iterations 1
ExecutionTime = 0.02 s  ClockTime = 0 s

Courant Number mean: 0.00518771 max: 0.0226881
Time = 710.1

diagonal:  Solving for rho, Initial residual = 0, Final residual = 0, No Iterations 0
DILUPBiCGStab:  Solving for Ux, Initial residual = 3.17891e-05, Final residual = 1.94519e-10, No Iterations 1
DILUPBiCGStab:  Solving for Uy, Initial residual = 1.57712e-05, Final residual = 1.24114e-10, No Iterations 1
DILUPBiCGStab:  Solving for h, Initial residual = 1.09262e-05, Final residual = 9.01522e-11, No Iterations 1
DICPCG:  Solving for p_rgh, Initial residual = 0.000792362, Final residual = 4.39721e-06, No Iterations 20
diagonal:  Solving for rho, Initial residual = 0, Final residual = 0, No Iterations 0
time step continuity errors : sum local = 2.10349e-10, global = 3.73369e-12, cumulative = -1.37185e-07
DICPCG:  Solving for p_rgh, Initial residual = 6.47862e-06, Final residual = 7.93775e-09, No Iterations 25
diagonal:  Solving for rho, Initial residual = 0, Final residual = 0, No Iterations 0
time step continuity errors : sum local = 4.55747e-12, global = 4.53716e-12, cumulative = -1.3718e-07
DILUPBiCGStab:  Solving for epsilon, Initial residual = 1.66252e-06, Final residual = 1.86489e-11, No Iterations 1
DILUPBiCGStab:  Solving for k, Initial residual = 2.94844e-06, Final residual = 3.23168e-11, No Iterations 1
ExecutionTime = 0.02 s  ClockTime = 0 s

Courant Number mean: 0.00518768 max: 0.0226873
Time = 710.11

diagonal:  Solving for rho, Initial residual = 0, Final residual = 0, No Iterations 0
DILUPBiCGStab:  Solving for Ux, Initial residual = 2.0702e-05, Final residual = 1.28285e-10, No Iterations 1
DILUPBiCGStab:  Solving for Uy, Initial residual = 1.07272e-05, Final residual = 8.36969e-11, No Iterations 1
DILUPBiCGStab:  Solving for h, Initial residual = 8.54636e-06, Final residual = 8.37878e-11, No Iterations 1
DICPCG:  Solving for p_rgh, Initial residual = 0.000992549, Final residual = 6.91751e-06, No Iterations 20
diagonal:  Solving for rho, Initial residual = 0, Final residual = 0, No Iterations 0
time step continuity errors : sum local = 3.32025e-10, global = 7.01301e-12, cumulative = -1.37173e-07
DICPCG:  Solving for p_rgh, Initial residual = 8.98539e-06, Final residual = 7.32076e-09, No Iterations 26
diagonal:  Solving for rho, Initial residual = 0, Final residual = 0, No Iterations 0
time step continuity errors : sum local = 5.54916e-12, global = 5.52781e-12, cumulative = -1.37168e-07
DILUPBiCGStab:  Solving for epsilon, Initial residual = 1.66787e-06, Final residual = 1.86595e-11, No Iterations 1
DILUPBiCGStab:  Solving for k, Initial residual = 2.95093e-06, Final residual = 3.23408e-11, No Iterations 1
ExecutionTime = 0.03 s  ClockTime = 0 s

Courant Number mean: 0.00518768 max: 0.022687
Time = 710.12

diagonal:  Solving for rho, Initial residual = 0, Final residual = 0, No Iterations 0
DILUPBiCGStab:  Solving for Ux, Initial residual = 8.22635e-06, Final residual = 5.29837e-11, No Iterations 1
DILUPBiCGStab:  Solving for Uy, Initial residual = 4.70982e-06, Final residual = 3.42204e-11, No Iterations 1
DILUPBiCGStab:  Solving for h, Initial residual = 7.74908e-06, Final residual = 8.06237e-11, No Iterations 1
DICPCG:  Solving for p_rgh, Initial residual = 0.00102136, Final residual = 9.46001e-06, No Iterations 18
diagonal:  Solving for rho, Initial residual = 0, Final residual = 0, No Iterations 0
time step continuity errors : sum local = 4.55185e-10, global = 2.1779e-11, cumulative = -1.37146e-07
DICPCG:  Solving for p_rgh, Initial residual = 1.0783e-05, Final residual = 9.84085e-09, No Iterations 27
diagonal:  Solving for rho, Initial residual = 0, Final residual = 0, No Iterations 0
time step continuity errors : sum local = 5.56647e-12, global = 5.54143e-12, cumulative = -1.3714e-07
DILUPBiCGStab:  Solving for epsilon, Initial residual = 1.66423e-06, Final residual = 1.86521e-11, No Iterations 1
DILUPBiCGStab:  Solving for k, Initial residual = 2.94868e-06, Final residual = 3.23146e-11, No Iterations 1
ExecutionTime = 0.03 s  ClockTime = 0 s

Courant Number mean: 0.00518768 max: 0.0226873
Time = 710.13

diagonal:  Solving for rho, Initial residual = 0, Final residual = 0, No Iterations 0
DILUPBiCGStab:  Solving for Ux, Initial residual = 5.08084e-06, Final residual = 3.11167e-11, No Iterations 1
DILUPBiCGStab:  Solving for Uy, Initial residual = 3.62258e-06, Final residual = 2.63237e-11, No Iterations 1
DILUPBiCGStab:  Solving for h, Initial residual = 7.6685e-06, Final residual = 7.95029e-11, No Iterations 1
DICPCG:  Solving for p_rgh, Initial residual = 0.000887373, Final residual = 8.50592e-06, No Iterations 18
diagonal:  Solving for rho, Initial residual = 0, Final residual = 0, No Iterations 0
time step continuity errors : sum local = 4.10528e-10, global = 1.94745e-11, cumulative = -1.37121e-07
DICPCG:  Solving for p_rgh, Initial residual = 9.47174e-06, Final residual = 8.77387e-09, No Iterations 27
diagonal:  Solving for rho, Initial residual = 0, Final residual = 0, No Iterations 0
time step continuity errors : sum local = 4.73499e-12, global = 4.70887e-12, cumulative = -1.37116e-07
DILUPBiCGStab:  Solving for epsilon, Initial residual = 1.65561e-06, Final residual = 1.86255e-11, No Iterations 1
DILUPBiCGStab:  Solving for k, Initial residual = 2.94516e-06, Final residual = 3.22911e-11, No Iterations 1
ExecutionTime = 0.03 s  ClockTime = 0 s

Courant Number mean: 0.0051877 max: 0.0226879
Time = 710.14

diagonal:  Solving for rho, Initial residual = 0, Final residual = 0, No Iterations 0
DILUPBiCGStab:  Solving for Ux, Initial residual = 1.53823e-05, Final residual = 9.08542e-11, No Iterations 1
DILUPBiCGStab:  Solving for Uy, Initial residual = 7.59201e-06, Final residual = 5.84319e-11, No Iterations 1
DILUPBiCGStab:  Solving for h, Initial residual = 8.21065e-06, Final residual = 8.02733e-11, No Iterations 1
DICPCG:  Solving for p_rgh, Initial residual = 0.00063422, Final residual = 5.14524e-06, No Iterations 16
diagonal:  Solving for rho, Initial residual = 0, Final residual = 0, No Iterations 0
time step continuity errors : sum local = 2.48731e-10, global = 8.90883e-12, cumulative = -1.37107e-07
DICPCG:  Solving for p_rgh, Initial residual = 5.92069e-06, Final residual = 6.04587e-09, No Iterations 26
diagonal:  Solving for rho, Initial residual = 0, Final residual = 0, No Iterations 0
time step continuity errors : sum local = 3.26911e-12, global = 3.24488e-12, cumulative = -1.37104e-07
DILUPBiCGStab:  Solving for epsilon, Initial residual = 1.65165e-06, Final residual = 1.86514e-11, No Iterations 1
DILUPBiCGStab:  Solving for k, Initial residual = 2.94673e-06, Final residual = 3.23543e-11, No Iterations 1
ExecutionTime = 0.03 s  ClockTime = 0 s

Courant Number mean: 0.00518772 max: 0.0226887
Time = 710.15

diagonal:  Solving for rho, Initial residual = 0, Final residual = 0, No Iterations 0
DILUPBiCGStab:  Solving for Ux, Initial residual = 2.229e-05, Final residual = 1.31557e-10, No Iterations 1
DILUPBiCGStab:  Solving for Uy, Initial residual = 1.08324e-05, Final residual = 8.36519e-11, No Iterations 1
DILUPBiCGStab:  Solving for h, Initial residual = 9.81663e-06, Final residual = 8.29502e-11, No Iterations 1
DICPCG:  Solving for p_rgh, Initial residual = 0.000316634, Final residual = 2.80605e-06, No Iterations 21
diagonal:  Solving for rho, Initial residual = 0, Final residual = 0, No Iterations 0
time step continuity errors : sum local = 1.36318e-10, global = 3.81239e-13, cumulative = -1.37104e-07
DICPCG:  Solving for p_rgh, Initial residual = 3.08922e-06, Final residual = 6.52191e-09, No Iterations 24
diagonal:  Solving for rho, Initial residual = 0, Final residual = 0, No Iterations 0
time step continuity errors : sum local = 1.48439e-12, global = 1.45627e-12, cumulative = -1.37102e-07
DILUPBiCGStab:  Solving for epsilon, Initial residual = 1.65682e-06, Final residual = 1.87641e-11, No Iterations 1
DILUPBiCGStab:  Solving for k, Initial residual = 2.96109e-06, Final residual = 3.25253e-11, No Iterations 1
ExecutionTime = 0.04 s  ClockTime = 0 s

Courant Number mean: 0.00518774 max: 0.0226896
Time = 710.16

diagonal:  Solving for rho, Initial residual = 0, Final residual = 0, No Iterations 0
DILUPBiCGStab:  Solving for Ux, Initial residual = 2.49027e-05, Final residual = 1.47084e-10, No Iterations 1
DILUPBiCGStab:  Solving for Uy, Initial residual = 1.22164e-05, Final residual = 9.4027e-11, No Iterations 1
DILUPBiCGStab:  Solving for h, Initial residual = 1.2506e-05, Final residual = 8.92637e-11, No Iterations 1
DICPCG:  Solving for p_rgh, Initial residual = 0.000120383, Final residual = 9.24432e-07, No Iterations 22
diagonal:  Solving for rho, Initial residual = 0, Final residual = 0, No Iterations 0
time step continuity errors : sum local = 4.48291e-11, global = 1.70393e-12, cumulative = -1.37101e-07
DICPCG:  Solving for p_rgh, Initial residual = 1.27179e-06, Final residual = 7.9021e-09, No Iterations 22
diagonal:  Solving for rho, Initial residual = 0, Final residual = 0, No Iterations 0
time step continuity errors : sum local = 5.96197e-13, global = -3.29033e-13, cumulative = -1.37101e-07
DILUPBiCGStab:  Solving for epsilon, Initial residual = 1.66802e-06, Final residual = 1.89187e-11, No Iterations 1
DILUPBiCGStab:  Solving for k, Initial residual = 2.9772e-06, Final residual = 3.27529e-11, No Iterations 1
ExecutionTime = 0.04 s  ClockTime = 0 s

Courant Number mean: 0.00518777 max: 0.0226905
Time = 710.17

diagonal:  Solving for rho, Initial residual = 0, Final residual = 0, No Iterations 0
DILUPBiCGStab:  Solving for Ux, Initial residual = 2.33262e-05, Final residual = 1.38008e-10, No Iterations 1
DILUPBiCGStab:  Solving for Uy, Initial residual = 1.17106e-05, Final residual = 8.94733e-11, No Iterations 1
DILUPBiCGStab:  Solving for h, Initial residual = 1.56347e-05, Final residual = 9.90753e-11, No Iterations 1
DICPCG:  Solving for p_rgh, Initial residual = 0.000340343, Final residual = 3.37464e-06, No Iterations 19
diagonal:  Solving for rho, Initial residual = 0, Final residual = 0, No Iterations 0
time step continuity errors : sum local = 1.64001e-10, global = 1.14128e-12, cumulative = -1.371e-07
DICPCG:  Solving for p_rgh, Initial residual = 4.18095e-06, Final residual = 7.75026e-09, No Iterations 23
diagonal:  Solving for rho, Initial residual = 0, Final residual = 0, No Iterations 0
time step continuity errors : sum local = 1.91372e-12, global = -1.85759e-12, cumulative = -1.37102e-07
DILUPBiCGStab:  Solving for epsilon, Initial residual = 1.67754e-06, Final residual = 1.90694e-11, No Iterations 1
DILUPBiCGStab:  Solving for k, Initial residual = 2.98975e-06, Final residual = 3.29201e-11, No Iterations 1
ExecutionTime = 0.04 s  ClockTime = 0 s

Courant Number mean: 0.00518779 max: 0.0226912
Time = 710.18

diagonal:  Solving for rho, Initial residual = 0, Final residual = 0, No Iterations 0
DILUPBiCGStab:  Solving for Ux, Initial residual = 1.83791e-05, Final residual = 1.09122e-10, No Iterations 1
DILUPBiCGStab:  Solving for Uy, Initial residual = 9.63553e-06, Final residual = 7.25398e-11, No Iterations 1
DILUPBiCGStab:  Solving for h, Initial residual = 1.84638e-05, Final residual = 1.11491e-10, No Iterations 1
DICPCG:  Solving for p_rgh, Initial residual = 0.000502522, Final residual = 3.3955e-06, No Iterations 20
diagonal:  Solving for rho, Initial residual = 0, Final residual = 0, No Iterations 0
time step continuity errors : sum local = 1.64301e-10, global = 2.63199e-13, cumulative = -1.37101e-07
DICPCG:  Solving for p_rgh, Initial residual = 4.59827e-06, Final residual = 7.68427e-09, No Iterations 25
diagonal:  Solving for rho, Initial residual = 0, Final residual = 0, No Iterations 0
time step continuity errors : sum local = 2.92663e-12, global = -2.89081e-12, cumulative = -1.37104e-07
DILUPBiCGStab:  Solving for epsilon, Initial residual = 1.68331e-06, Final residual = 1.91639e-11, No Iterations 1
DILUPBiCGStab:  Solving for k, Initial residual = 2.99723e-06, Final residual = 3.30137e-11, No Iterations 1
ExecutionTime = 0.04 s  ClockTime = 0 s

Courant Number mean: 0.0051878 max: 0.0226916
Time = 710.19

diagonal:  Solving for rho, Initial residual = 0, Final residual = 0, No Iterations 0
DILUPBiCGStab:  Solving for Ux, Initial residual = 1.12908e-05, Final residual = 6.78537e-11, No Iterations 1
DILUPBiCGStab:  Solving for Uy, Initial residual = 6.53219e-06, Final residual = 4.75972e-11, No Iterations 1
DILUPBiCGStab:  Solving for h, Initial residual = 2.04812e-05, Final residual = 1.21224e-10, No Iterations 1
DICPCG:  Solving for p_rgh, Initial residual = 0.00060194, Final residual = 4.7635e-06, No Iterations 20
diagonal:  Solving for rho, Initial residual = 0, Final residual = 0, No Iterations 0
time step continuity errors : sum local = 2.29794e-10, global = -5.40958e-13, cumulative = -1.37105e-07
DICPCG:  Solving for p_rgh, Initial residual = 5.88732e-06, Final residual = 4.28807e-09, No Iterations 26
diagonal:  Solving for rho, Initial residual = 0, Final residual = 0, No Iterations 0
time step continuity errors : sum local = 3.37268e-12, global = -3.35991e-12, cumulative = -1.37108e-07
DILUPBiCGStab:  Solving for epsilon, Initial residual = 1.68473e-06, Final residual = 1.91868e-11, No Iterations 1
DILUPBiCGStab:  Solving for k, Initial residual = 2.99905e-06, Final residual = 3.30369e-11, No Iterations 1
ExecutionTime = 0.05 s  ClockTime = 0 s

Courant Number mean: 0.0051878 max: 0.0226918
Time = 710.2

diagonal:  Solving for rho, Initial residual = 0, Final residual = 0, No Iterations 0
DILUPBiCGStab:  Solving for Ux, Initial residual = 3.46168e-06, Final residual = 2.20576e-11, No Iterations 1
DILUPBiCGStab:  Solving for Uy, Initial residual = 3.12577e-06, Final residual = 2.1166e-11, No Iterations 1
DILUPBiCGStab:  Solving for h, Initial residual = 2.13805e-05, Final residual = 1.25465e-10, No Iterations 1
DICPCG:  Solving for p_rgh, Initial residual = 0.000599008, Final residual = 5.23438e-06, No Iterations 20
diagonal:  Solving for rho, Initial residual = 0, Final residual = 0, No Iterations 0
time step continuity errors : sum local = 2.52151e-10, global = -9.29341e-13, cumulative = -1.37109e-07
DICPCG:  Solving for p_rgh, Initial residual = 6.17699e-06, Final residual = 7.13518e-09, No Iterations 25
diagonal:  Solving for rho, Initial residual = 0, Final residual = 0, No Iterations 0
time step continuity errors : sum local = 3.2622e-12, global = -3.24129e-12, cumulative = -1.37112e-07
DILUPBiCGStab:  Solving for epsilon, Initial residual = 1.68214e-06, Final residual = 1.91452e-11, No Iterations 1
DILUPBiCGStab:  Solving for k, Initial residual = 2.99565e-06, Final residual = 3.29972e-11, No Iterations 1
ExecutionTime = 0.05 s  ClockTime = 0 s

Courant Number mean: 0.0051878 max: 0.0226916
Time = 710.21

diagonal:  Solving for rho, Initial residual = 0, Final residual = 0, No Iterations 0
DILUPBiCGStab:  Solving for Ux, Initial residual = 4.75958e-06, Final residual = 3.12475e-11, No Iterations 1
DILUPBiCGStab:  Solving for Uy, Initial residual = 2.39391e-06, Final residual = 1.89889e-11, No Iterations 1
DILUPBiCGStab:  Solving for h, Initial residual = 2.11307e-05, Final residual = 1.2394e-10, No Iterations 1
DICPCG:  Solving for p_rgh, Initial residual = 0.000503736, Final residual = 4.97772e-06, No Iterations 16
diagonal:  Solving for rho, Initial residual = 0, Final residual = 0, No Iterations 0
time step continuity errors : sum local = 2.39962e-10, global = -7.8452e-12, cumulative = -1.3712e-07
DICPCG:  Solving for p_rgh, Initial residual = 5.72084e-06, Final residual = 6.6582e-09, No Iterations 26
diagonal:  Solving for rho, Initial residual = 0, Final residual = 0, No Iterations 0
time step continuity errors : sum local = 2.67897e-12, global = -2.6476e-12, cumulative = -1.37123e-07
DILUPBiCGStab:  Solving for epsilon, Initial residual = 1.67647e-06, Final residual = 1.90511e-11, No Iterations 1
DILUPBiCGStab:  Solving for k, Initial residual = 2.98818e-06, Final residual = 3.29047e-11, No Iterations 1
ExecutionTime = 0.05 s  ClockTime = 0 s

Courant Number mean: 0.00518779 max: 0.0226913
Time = 710.22

diagonal:  Solving for rho, Initial residual = 0, Final residual = 0, No Iterations 0
DILUPBiCGStab:  Solving for Ux, Initial residual = 1.04975e-05, Final residual = 6.48071e-11, No Iterations 1
DILUPBiCGStab:  Solving for Uy, Initial residual = 4.69578e-06, Final residual = 3.85629e-11, No Iterations 1
DILUPBiCGStab:  Solving for h, Initial residual = 1.99099e-05, Final residual = 1.17531e-10, No Iterations 1
DICPCG:  Solving for p_rgh, Initial residual = 0.000341772, Final residual = 3.00651e-06, No Iterations 16
diagonal:  Solving for rho, Initial residual = 0, Final residual = 0, No Iterations 0
time step continuity errors : sum local = 1.44756e-10, global = 8.19429e-12, cumulative = -1.37115e-07
DICPCG:  Solving for p_rgh, Initial residual = 3.44215e-06, Final residual = 5.70221e-09, No Iterations 25
diagonal:  Solving for rho, Initial residual = 0, Final residual = 0, No Iterations 0
time step continuity errors : sum local = 1.75008e-12, global = -1.71504e-12, cumulative = -1.37116e-07
DILUPBiCGStab:  Solving for epsilon, Initial residual = 1.66906e-06, Final residual = 1.89419e-11, No Iterations 1
DILUPBiCGStab:  Solving for k, Initial residual = 2.97831e-06, Final residual = 3.27742e-11, No Iterations 1
ExecutionTime = 0.05 s  ClockTime = 0 s

Courant Number mean: 0.00518778 max: 0.0226908
Time = 710.23

diagonal:  Solving for rho, Initial residual = 0, Final residual = 0, No Iterations 0
DILUPBiCGStab:  Solving for Ux, Initial residual = 1.39967e-05, Final residual = 8.55433e-11, No Iterations 1
DILUPBiCGStab:  Solving for Uy, Initial residual = 6.44103e-06, Final residual = 5.1885e-11, No Iterations 1
DILUPBiCGStab:  Solving for h, Initial residual = 1.80333e-05, Final residual = 1.07895e-10, No Iterations 1
DICPCG:  Solving for p_rgh, Initial residual = 0.000146953, Final residual = 9.04709e-07, No Iterations 22
diagonal:  Solving for rho, Initial residual = 0, Final residual = 0, No Iterations 0
time step continuity errors : sum local = 4.33015e-11, global = 2.59087e-12, cumulative = -1.37114e-07
DICPCG:  Solving for p_rgh, Initial residual = 1.11549e-06, Final residual = 5.95895e-09, No Iterations 23
diagonal:  Solving for rho, Initial residual = 0, Final residual = 0, No Iterations 0
time step continuity errors : sum local = 7.02226e-13, global = -6.2334e-13, cumulative = -1.37114e-07
DILUPBiCGStab:  Solving for epsilon, Initial residual = 1.66197e-06, Final residual = 1.88432e-11, No Iterations 1
DILUPBiCGStab:  Solving for k, Initial residual = 2.96789e-06, Final residual = 3.26269e-11, No Iterations 1
ExecutionTime = 0.05 s  ClockTime = 0 s

Courant Number mean: 0.00518776 max: 0.0226902
Time = 710.24

diagonal:  Solving for rho, Initial residual = 0, Final residual = 0, No Iterations 0
DILUPBiCGStab:  Solving for Ux, Initial residual = 1.4953e-05, Final residual = 9.12752e-11, No Iterations 1
DILUPBiCGStab:  Solving for Uy, Initial residual = 7.01966e-06, Final residual = 5.59627e-11, No Iterations 1
DILUPBiCGStab:  Solving for h, Initial residual = 1.59059e-05, Final residual = 9.7213e-11, No Iterations 1
DICPCG:  Solving for p_rgh, Initial residual = 0.000105796, Final residual = 9.87085e-07, No Iterations 21
diagonal:  Solving for rho, Initial residual = 0, Final residual = 0, No Iterations 0
time step continuity errors : sum local = 4.74915e-11, global = 2.02441e-12, cumulative = -1.37112e-07
DICPCG:  Solving for p_rgh, Initial residual = 1.26998e-06, Final residual = 9.33663e-09, No Iterations 22
diagonal:  Solving for rho, Initial residual = 0, Final residual = 0, No Iterations 0
time step continuity errors : sum local = 6.16925e-13, global = 4.14644e-13, cumulative = -1.37112e-07
DILUPBiCGStab:  Solving for epsilon, Initial residual = 1.65606e-06, Final residual = 1.87537e-11, No Iterations 1
DILUPBiCGStab:  Solving for k, Initial residual = 2.95857e-06, Final residual = 3.24966e-11, No Iterations 1
ExecutionTime = 0.06 s  ClockTime = 0 s

Courant Number mean: 0.00518775 max: 0.0226898
Time = 710.25

diagonal:  Solving for rho, Initial residual = 0, Final residual = 0, No Iterations 0
DILUPBiCGStab:  Solving for Ux, Initial residual = 1.35284e-05, Final residual = 8.29207e-11, No Iterations 1
DILUPBiCGStab:  Solving for Uy, Initial residual = 6.48186e-06, Final residual = 5.12185e-11, No Iterations 1
DILUPBiCGStab:  Solving for h, Initial residual = 1.39357e-05, Final residual = 8.82197e-11, No Iterations 1
DICPCG:  Solving for p_rgh, Initial residual = 0.000229874, Final residual = 1.54586e-06, No Iterations 20
diagonal:  Solving for rho, Initial residual = 0, Final residual = 0, No Iterations 0
time step continuity errors : sum local = 7.41472e-11, global = 1.97295e-12, cumulative = -1.3711e-07
DICPCG:  Solving for p_rgh, Initial residual = 2.10131e-06, Final residual = 8.59474e-09, No Iterations 23
diagonal:  Solving for rho, Initial residual = 0, Final residual = 0, No Iterations 0
time step continuity errors : sum local = 1.35673e-12, global = 1.27884e-12, cumulative = -1.37109e-07
DILUPBiCGStab:  Solving for epsilon, Initial residual = 1.65185e-06, Final residual = 1.8711e-11, No Iterations 1
DILUPBiCGStab:  Solving for k, Initial residual = 2.95165e-06, Final residual = 3.24068e-11, No Iterations 1
ExecutionTime = 0.06 s  ClockTime = 0 s

Courant Number mean: 0.00518774 max: 0.0226894
Time = 710.26

diagonal:  Solving for rho, Initial residual = 0, Final residual = 0, No Iterations 0
DILUPBiCGStab:  Solving for Ux, Initial residual = 1.02409e-05, Final residual = 6.3573e-11, No Iterations 1
DILUPBiCGStab:  Solving for Uy, Initial residual = 5.05525e-06, Final residual = 3.948e-11, No Iterations 1
DILUPBiCGStab:  Solving for h, Initial residual = 1.23822e-05, Final residual = 8.21503e-11, No Iterations 1
DICPCG:  Solving for p_rgh, Initial residual = 0.000320646, Final residual = 2.22663e-06, No Iterations 20
diagonal:  Solving for rho, Initial residual = 0, Final residual = 0, No Iterations 0
time step continuity errors : sum local = 1.07174e-10, global = 3.31777e-12, cumulative = -1.37105e-07
DICPCG:  Solving for p_rgh, Initial residual = 2.95689e-06, Final residual = 9.81253e-09, No Iterations 24
diagonal:  Solving for rho, Initial residual = 0, Final residual = 0, No Iterations 0
time step continuity errors : sum local = 1.89289e-12, global = 1.82874e-12, cumulative = -1.37103e-07
DILUPBiCGStab:  Solving for epsilon, Initial residual = 1.65226e-06, Final residual = 1.86877e-11, No Iterations 1
DILUPBiCGStab:  Solving for k, Initial residual = 2.94853e-06, Final residual = 3.23751e-11, No Iterations 1
ExecutionTime = 0.06 s  ClockTime = 0 s

Courant Number mean: 0.00518774 max: 0.0226892
Time = 710.27

diagonal:  Solving for rho, Initial residual = 0, Final residual = 0, No Iterations 0
DILUPBiCGStab:  Solving for Ux, Initial residual = 5.83966e-06, Final residual = 3.79863e-11, No Iterations 1
DILUPBiCGStab:  Solving for Uy, Initial residual = 3.16975e-06, Final residual = 2.36251e-11, No Iterations 1
DILUPBiCGStab:  Solving for h, Initial residual = 1.14085e-05, Final residual = 7.84218e-11, No Iterations 1
DICPCG:  Solving for p_rgh, Initial residual = 0.000367075, Final residual = 2.89978e-06, No Iterations 20
diagonal:  Solving for rho, Initial residual = 0, Final residual = 0, No Iterations 0
time step continuity errors : sum local = 1.39769e-10, global = 3.67771e-12, cumulative = -1.371e-07
DICPCG:  Solving for p_rgh, Initial residual = 3.60077e-06, Final residual = 6.16873e-09, No Iterations 25
diagonal:  Solving for rho, Initial residual = 0, Final residual = 0, No Iterations 0
time step continuity errors : sum local = 2.06758e-12, global = 2.03496e-12, cumulative = -1.37098e-07
DILUPBiCGStab:  Solving for epsilon, Initial residual = 1.65214e-06, Final residual = 1.86835e-11, No Iterations 1
DILUPBiCGStab:  Solving for k, Initial residual = 2.94814e-06, Final residual = 3.23706e-11, No Iterations 1
ExecutionTime = 0.06 s  ClockTime = 0 s

Courant Number mean: 0.00518774 max: 0.0226892
Time = 710.28

diagonal:  Solving for rho, Initial residual = 0, Final residual = 0, No Iterations 0
DILUPBiCGStab:  Solving for Ux, Initial residual = 1.76415e-06, Final residual = 1.24721e-11, No Iterations 1
DILUPBiCGStab:  Solving for Uy, Initial residual = 1.74461e-06, Final residual = 1.14381e-11, No Iterations 1
DILUPBiCGStab:  Solving for h, Initial residual = 1.10554e-05, Final residual = 7.67091e-11, No Iterations 1
DICPCG:  Solving for p_rgh, Initial residual = 0.000350968, Final residual = 3.05527e-06, No Iterations 20
diagonal:  Solving for rho, Initial residual = 0, Final residual = 0, No Iterations 0
time step continuity errors : sum local = 1.47493e-10, global = 3.83604e-12, cumulative = -1.37094e-07
DICPCG:  Solving for p_rgh, Initial residual = 3.61351e-06, Final residual = 5.09397e-09, No Iterations 24
diagonal:  Solving for rho, Initial residual = 0, Final residual = 0, No Iterations 0
time step continuity errors : sum local = 1.91378e-12, global = 1.8923e-12, cumulative = -1.37092e-07
DILUPBiCGStab:  Solving for epsilon, Initial residual = 1.6516e-06, Final residual = 1.8697e-11, No Iterations 1
DILUPBiCGStab:  Solving for k, Initial residual = 2.95011e-06, Final residual = 3.23849e-11, No Iterations 1
ExecutionTime = 0.07 s  ClockTime = 0 s

Courant Number mean: 0.00518774 max: 0.0226894
Time = 710.29

diagonal:  Solving for rho, Initial residual = 0, Final residual = 0, No Iterations 0
DILUPBiCGStab:  Solving for Ux, Initial residual = 3.98779e-06, Final residual = 2.45587e-11, No Iterations 1
DILUPBiCGStab:  Solving for Uy, Initial residual = 2.79472e-06, Final residual = 2.00637e-11, No Iterations 1
DILUPBiCGStab:  Solving for h, Initial residual = 1.12596e-05, Final residual = 7.67297e-11, No Iterations 1
DICPCG:  Solving for p_rgh, Initial residual = 0.00028261, Final residual = 2.34486e-06, No Iterations 16
diagonal:  Solving for rho, Initial residual = 0, Final residual = 0, No Iterations 0
time step continuity errors : sum local = 1.13002e-10, global = 5.77657e-12, cumulative = -1.37086e-07
DICPCG:  Solving for p_rgh, Initial residual = 2.74239e-06, Final residual = 6.1171e-09, No Iterations 25
diagonal:  Solving for rho, Initial residual = 0, Final residual = 0, No Iterations 0
time step continuity errors : sum local = 1.52518e-12, global = 1.48442e-12, cumulative = -1.37085e-07
DILUPBiCGStab:  Solving for epsilon, Initial residual = 1.65482e-06, Final residual = 1.87245e-11, No Iterations 1
DILUPBiCGStab:  Solving for k, Initial residual = 2.95494e-06, Final residual = 3.24436e-11, No Iterations 1
ExecutionTime = 0.07 s  ClockTime = 0 s

Courant Number mean: 0.00518775 max: 0.0226897
Time = 710.3

diagonal:  Solving for rho, Initial residual = 0, Final residual = 0, No Iterations 0
DILUPBiCGStab:  Solving for Ux, Initial residual = 7.1499e-06, Final residual = 4.26209e-11, No Iterations 1
DILUPBiCGStab:  Solving for Uy, Initial residual = 4.12609e-06, Final residual = 3.02059e-11, No Iterations 1
DILUPBiCGStab:  Solving for h, Initial residual = 1.19443e-05, Final residual = 7.83641e-11, No Iterations 1
DICPCG:  Solving for p_rgh, Initial residual = 0.000179135, Final residual = 1.71479e-06, No Iterations 18
diagonal:  Solving for rho, Initial residual = 0, Final residual = 0, No Iterations 0
time step continuity errors : sum local = 8.29779e-11, global = -9.54952e-13, cumulative = -1.37086e-07
DICPCG:  Solving for p_rgh, Initial residual = 1.89296e-06, Final residual = 6.06586e-09, No Iterations 25
diagonal:  Solving for rho, Initial residual = 0, Final residual = 0, No Iterations 0
time step continuity errors : sum local = 9.2666e-13, global = 8.74131e-13, cumulative = -1.37085e-07
DILUPBiCGStab:  Solving for epsilon, Initial residual = 1.65894e-06, Final residual = 1.87804e-11, No Iterations 1
DILUPBiCGStab:  Solving for k, Initial residual = 2.96098e-06, Final residual = 3.25253e-11, No Iterations 1
ExecutionTime = 0.07 s  ClockTime = 0 s

Courant Number mean: 0.00518776 max: 0.02269
Time = 710.31

diagonal:  Solving for rho, Initial residual = 0, Final residual = 0, No Iterations 0
DILUPBiCGStab:  Solving for Ux, Initial residual = 8.89857e-06, Final residual = 5.2824e-11, No Iterations 1
DILUPBiCGStab:  Solving for Uy, Initial residual = 4.9785e-06, Final residual = 3.66123e-11, No Iterations 1
DILUPBiCGStab:  Solving for h, Initial residual = 1.29829e-05, Final residual = 8.18178e-11, No Iterations 1
DICPCG:  Solving for p_rgh, Initial residual = 6.33207e-05, Final residual = 4.52153e-07, No Iterations 22
diagonal:  Solving for rho, Initial residual = 0, Final residual = 0, No Iterations 0
time step continuity errors : sum local = 2.21893e-11, global = 1.79973e-12, cumulative = -1.37083e-07
DICPCG:  Solving for p_rgh, Initial residual = 5.5209e-07, Final residual = 9.68991e-09, No Iterations 18
diagonal:  Solving for rho, Initial residual = 0, Final residual = 0, No Iterations 0
time step continuity errors : sum local = 5.74822e-13, global = 2.82087e-13, cumulative = -1.37083e-07
DILUPBiCGStab:  Solving for epsilon, Initial residual = 1.66311e-06, Final residual = 1.88422e-11, No Iterations 1
DILUPBiCGStab:  Solving for k, Initial residual = 2.96713e-06, Final residual = 3.26119e-11, No Iterations 1
ExecutionTime = 0.07 s  ClockTime = 0 s

Courant Number mean: 0.00518777 max: 0.0226904
Time = 710.32

diagonal:  Solving for rho, Initial residual = 0, Final residual = 0, No Iterations 0
DILUPBiCGStab:  Solving for Ux, Initial residual = 9.13096e-06, Final residual = 5.43095e-11, No Iterations 1
DILUPBiCGStab:  Solving for Uy, Initial residual = 5.16164e-06, Final residual = 3.78437e-11, No Iterations 1
DILUPBiCGStab:  Solving for h, Initial residual = 1.41539e-05, Final residual = 8.64483e-11, No Iterations 1
DICPCG:  Solving for p_rgh, Initial residual = 8.15896e-05, Final residual = 6.42078e-07, No Iterations 20
diagonal:  Solving for rho, Initial residual = 0, Final residual = 0, No Iterations 0
time step continuity errors : sum local = 3.13946e-11, global = 2.33463e-12, cumulative = -1.3708e-07
DICPCG:  Solving for p_rgh, Initial residual = 8.47175e-07, Final residual = 7.83973e-09, No Iterations 21
diagonal:  Solving for rho, Initial residual = 0, Final residual = 0, No Iterations 0
time step continuity errors : sum local = 5.84175e-13, global = -3.77442e-13, cumulative = -1.37081e-07
DILUPBiCGStab:  Solving for epsilon, Initial residual = 1.6667e-06, Final residual = 1.88958e-11, No Iterations 1
DILUPBiCGStab:  Solving for k, Initial residual = 2.97243e-06, Final residual = 3.26877e-11, No Iterations 1
ExecutionTime = 0.08 s  ClockTime = 0 s

Courant Number mean: 0.00518778 max: 0.0226907
Time = 710.33

diagonal:  Solving for rho, Initial residual = 0, Final residual = 0, No Iterations 0
DILUPBiCGStab:  Solving for Ux, Initial residual = 7.99512e-06, Final residual = 4.7864e-11, No Iterations 1
DILUPBiCGStab:  Solving for Uy, Initial residual = 4.72782e-06, Final residual = 3.43094e-11, No Iterations 1
DILUPBiCGStab:  Solving for h, Initial residual = 1.52821e-05, Final residual = 9.15876e-11, No Iterations 1
DICPCG:  Solving for p_rgh, Initial residual = 0.000150058, Final residual = 1.02796e-06, No Iterations 20
diagonal:  Solving for rho, Initial residual = 0, Final residual = 0, No Iterations 0
time step continuity errors : sum local = 4.95551e-11, global = 2.18805e-12, cumulative = -1.37079e-07
DICPCG:  Solving for p_rgh, Initial residual = 1.40152e-06, Final residual = 6.44957e-09, No Iterations 23
diagonal:  Solving for rho, Initial residual = 0, Final residual = 0, No Iterations 0
time step continuity errors : sum local = 9.22643e-13, global = -8.47474e-13, cumulative = -1.37079e-07
DILUPBiCGStab:  Solving for epsilon, Initial residual = 1.66945e-06, Final residual = 1.89341e-11, No Iterations 1
DILUPBiCGStab:  Solving for k, Initial residual = 2.97617e-06, Final residual = 3.27413e-11, No Iterations 1
ExecutionTime = 0.08 s  ClockTime = 0 s

Courant Number mean: 0.00518778 max: 0.0226909
Time = 710.34

diagonal:  Solving for rho, Initial residual = 0, Final residual = 0, No Iterations 0
DILUPBiCGStab:  Solving for Ux, Initial residual = 5.8419e-06, Final residual = 3.55332e-11, No Iterations 1
DILUPBiCGStab:  Solving for Uy, Initial residual = 3.8337e-06, Final residual = 2.72561e-11, No Iterations 1
DILUPBiCGStab:  Solving for h, Initial residual = 1.61834e-05, Final residual = 9.57115e-11, No Iterations 1
DICPCG:  Solving for p_rgh, Initial residual = 0.000201257, Final residual = 1.52065e-06, No Iterations 20
diagonal:  Solving for rho, Initial residual = 0, Final residual = 0, No Iterations 0
time step continuity errors : sum local = 7.31416e-11, global = 1.23714e-12, cumulative = -1.37078e-07
DICPCG:  Solving for p_rgh, Initial residual = 1.93789e-06, Final residual = 6.7154e-09, No Iterations 24
diagonal:  Solving for rho, Initial residual = 0, Final residual = 0, No Iterations 0
time step continuity errors : sum local = 1.20235e-12, global = -1.13568e-12, cumulative = -1.37079e-07
DILUPBiCGStab:  Solving for epsilon, Initial residual = 1.67089e-06, Final residual = 1.89537e-11, No Iterations 1
DILUPBiCGStab:  Solving for k, Initial residual = 2.97795e-06, Final residual = 3.27675e-11, No Iterations 1
ExecutionTime = 0.08 s  ClockTime = 0 s

Courant Number mean: 0.00518779 max: 0.022691
Time = 710.35

diagonal:  Solving for rho, Initial residual = 0, Final residual = 0, No Iterations 0
DILUPBiCGStab:  Solving for Ux, Initial residual = 3.16267e-06, Final residual = 1.99534e-11, No Iterations 1
DILUPBiCGStab:  Solving for Uy, Initial residual = 2.69935e-06, Final residual = 1.85879e-11, No Iterations 1
DILUPBiCGStab:  Solving for h, Initial residual = 1.67245e-05, Final residual = 9.81114e-11, No Iterations 1
DICPCG:  Solving for p_rgh, Initial residual = 0.000220378, Final residual = 1.88372e-06, No Iterations 20
diagonal:  Solving for rho, Initial residual = 0, Final residual = 0, No Iterations 0
time step continuity errors : sum local = 9.05209e-11, global = 1.01914e-12, cumulative = -1.37078e-07
DICPCG:  Solving for p_rgh, Initial residual = 2.25607e-06, Final residual = 6.27803e-09, No Iterations 24
diagonal:  Solving for rho, Initial residual = 0, Final residual = 0, No Iterations 0
time step continuity errors : sum local = 1.26614e-12, global = -1.20833e-12, cumulative = -1.3708e-07
DILUPBiCGStab:  Solving for epsilon, Initial residual = 1.67081e-06, Final residual = 1.89546e-11, No Iterations 1
DILUPBiCGStab:  Solving for k, Initial residual = 2.97775e-06, Final residual = 3.27664e-11, No Iterations 1
ExecutionTime = 0.08 s  ClockTime = 0 s

Courant Number mean: 0.00518779 max: 0.022691
Time = 710.36

diagonal:  Solving for rho, Initial residual = 0, Final residual = 0, No Iterations 0
DILUPBiCGStab:  Solving for Ux, Initial residual = 1.54247e-06, Final residual = 1.0979e-11, No Iterations 1
DILUPBiCGStab:  Solving for Uy, Initial residual = 1.6489e-06, Final residual = 1.13522e-11, No Iterations 1
DILUPBiCGStab:  Solving for h, Initial residual = 1.68526e-05, Final residual = 9.84888e-11, No Iterations 1
DICPCG:  Solving for p_rgh, Initial residual = 0.000203287, Final residual = 1.81345e-06, No Iterations 20
diagonal:  Solving for rho, Initial residual = 0, Final residual = 0, No Iterations 0
time step continuity errors : sum local = 8.71172e-11, global = 9.32774e-13, cumulative = -1.37079e-07
DICPCG:  Solving for p_rgh, Initial residual = 2.11027e-06, Final residual = 6.11912e-09, No Iterations 23
diagonal:  Solving for rho, Initial residual = 0, Final residual = 0, No Iterations 0
time step continuity errors : sum local = 1.147e-12, global = -1.09928e-12, cumulative = -1.3708e-07
DILUPBiCGStab:  Solving for epsilon, Initial residual = 1.66944e-06, Final residual = 1.89395e-11, No Iterations 1
DILUPBiCGStab:  Solving for k, Initial residual = 2.97583e-06, Final residual = 3.27416e-11, No Iterations 1
ExecutionTime = 0.08 s  ClockTime = 0 s

Courant Number mean: 0.00518779 max: 0.0226909
Time = 710.37

diagonal:  Solving for rho, Initial residual = 0, Final residual = 0, No Iterations 0
DILUPBiCGStab:  Solving for Ux, Initial residual = 3.0326e-06, Final residual = 2.11352e-11, No Iterations 1
DILUPBiCGStab:  Solving for Uy, Initial residual = 1.77102e-06, Final residual = 1.32517e-11, No Iterations 1
DILUPBiCGStab:  Solving for h, Initial residual = 1.65911e-05, Final residual = 9.69993e-11, No Iterations 1
DICPCG:  Solving for p_rgh, Initial residual = 0.000156885, Final residual = 1.1386e-06, No Iterations 16
diagonal:  Solving for rho, Initial residual = 0, Final residual = 0, No Iterations 0
time step continuity errors : sum local = 5.52161e-11, global = 1.15152e-12, cumulative = -1.37079e-07
DICPCG:  Solving for p_rgh, Initial residual = 1.38426e-06, Final residual = 5.98452e-09, No Iterations 21
diagonal:  Solving for rho, Initial residual = 0, Final residual = 0, No Iterations 0
time step continuity errors : sum local = 8.83149e-13, global = -8.06533e-13, cumulative = -1.37079e-07
DILUPBiCGStab:  Solving for epsilon, Initial residual = 1.66732e-06, Final residual = 1.89125e-11, No Iterations 1
DILUPBiCGStab:  Solving for k, Initial residual = 2.97272e-06, Final residual = 3.26996e-11, No Iterations 1
ExecutionTime = 0.09 s  ClockTime = 0 s

Courant Number mean: 0.00518778 max: 0.0226908
Time = 710.38

diagonal:  Solving for rho, Initial residual = 0, Final residual = 0, No Iterations 0
DILUPBiCGStab:  Solving for Ux, Initial residual = 4.68517e-06, Final residual = 3.08539e-11, No Iterations 1
DILUPBiCGStab:  Solving for Uy, Initial residual = 2.36901e-06, Final residual = 1.85711e-11, No Iterations 1
DILUPBiCGStab:  Solving for h, Initial residual = 1.60295e-05, Final residual = 9.40584e-11, No Iterations 1
DICPCG:  Solving for p_rgh, Initial residual = 9.19634e-05, Final residual = 7.36377e-07, No Iterations 21
diagonal:  Solving for rho, Initial residual = 0, Final residual = 0, No Iterations 0
time step continuity errors : sum local = 3.53615e-11, global = 2.53739e-12, cumulative = -1.37077e-07
DICPCG:  Solving for p_rgh, Initial residual = 8.26116e-07, Final residual = 8.09329e-09, No Iterations 22
diagonal:  Solving for rho, Initial residual = 0, Final residual = 0, No Iterations 0
time step continuity errors : sum local = 6.04984e-13, global = -4.43685e-13, cumulative = -1.37077e-07
DILUPBiCGStab:  Solving for epsilon, Initial residual = 1.66502e-06, Final residual = 1.88792e-11, No Iterations 1
DILUPBiCGStab:  Solving for k, Initial residual = 2.96903e-06, Final residual = 3.26485e-11, No Iterations 1
ExecutionTime = 0.09 s  ClockTime = 0 s

Courant Number mean: 0.00518778 max: 0.0226906
Time = 710.39

diagonal:  Solving for rho, Initial residual = 0, Final residual = 0, No Iterations 0
DILUPBiCGStab:  Solving for Ux, Initial residual = 5.52761e-06, Final residual = 3.57199e-11, No Iterations 1
DILUPBiCGStab:  Solving for Uy, Initial residual = 2.75504e-06, Final residual = 2.16423e-11, No Iterations 1
DILUPBiCGStab:  Solving for h, Initial residual = 1.5296e-05, Final residual = 9.02473e-11, No Iterations 1
DICPCG:  Solving for p_rgh, Initial residual = 3.02166e-05, Final residual = 2.31834e-07, No Iterations 22
diagonal:  Solving for rho, Initial residual = 0, Final residual = 0, No Iterations 0
time step continuity errors : sum local = 1.12298e-11, global = 2.16403e-12, cumulative = -1.37075e-07
DICPCG:  Solving for p_rgh, Initial residual = 2.85613e-07, Final residual = 9.16547e-09, No Iterations 13
diagonal:  Solving for rho, Initial residual = 0, Final residual = 0, No Iterations 0
time step continuity errors : sum local = 4.71159e-13, global = -4.47282e-14, cumulative = -1.37075e-07
DILUPBiCGStab:  Solving for epsilon, Initial residual = 1.66279e-06, Final residual = 1.88461e-11, No Iterations 1
DILUPBiCGStab:  Solving for k, Initial residual = 2.96543e-06, Final residual = 3.26003e-11, No Iterations 1
ExecutionTime = 0.09 s  ClockTime = 0 s

Courant Number mean: 0.00518777 max: 0.0226905
Time = 710.4

diagonal:  Solving for rho, Initial residual = 0, Final residual = 0, No Iterations 0
DILUPBiCGStab:  Solving for Ux, Initial residual = 5.47292e-06, Final residual = 3.54429e-11, No Iterations 1
DILUPBiCGStab:  Solving for Uy, Initial residual = 2.78118e-06, Final residual = 2.15958e-11, No Iterations 1
DILUPBiCGStab:  Solving for h, Initial residual = 1.45282e-05, Final residual = 8.62641e-11, No Iterations 1
DICPCG:  Solving for p_rgh, Initial residual = 6.03337e-05, Final residual = 4.77938e-07, No Iterations 18
diagonal:  Solving for rho, Initial residual = 0, Final residual = 0, No Iterations 0
time step continuity errors : sum local = 2.31885e-11, global = 2.25994e-12, cumulative = -1.37073e-07
DICPCG:  Solving for p_rgh, Initial residual = 6.42899e-07, Final residual = 9.60411e-09, No Iterations 15
diagonal:  Solving for rho, Initial residual = 0, Final residual = 0, No Iterations 0
time step continuity errors : sum local = 5.49498e-13, global = 1.94273e-13, cumulative = -1.37073e-07
DILUPBiCGStab:  Solving for epsilon, Initial residual = 1.66097e-06, Final residual = 1.88194e-11, No Iterations 1
DILUPBiCGStab:  Solving for k, Initial residual = 2.96245e-06, Final residual = 3.25598e-11, No Iterations 1
ExecutionTime = 0.09 s  ClockTime = 0 s

Courant Number mean: 0.00518777 max: 0.0226903
Time = 710.41

diagonal:  Solving for rho, Initial residual = 0, Final residual = 0, No Iterations 0
DILUPBiCGStab:  Solving for Ux, Initial residual = 4.64094e-06, Final residual = 3.06998e-11, No Iterations 1
DILUPBiCGStab:  Solving for Uy, Initial residual = 2.48943e-06, Final residual = 1.87786e-11, No Iterations 1
DILUPBiCGStab:  Solving for h, Initial residual = 1.38467e-05, Final residual = 8.27658e-11, No Iterations 1
DICPCG:  Solving for p_rgh, Initial residual = 9.78852e-05, Final residual = 6.47938e-07, No Iterations 20
diagonal:  Solving for rho, Initial residual = 0, Final residual = 0, No Iterations 0
time step continuity errors : sum local = 3.11341e-11, global = 2.14436e-12, cumulative = -1.37071e-07
DICPCG:  Solving for p_rgh, Initial residual = 8.93613e-07, Final residual = 7.87662e-09, No Iterations 22
diagonal:  Solving for rho, Initial residual = 0, Final residual = 0, No Iterations 0
time step continuity errors : sum local = 7.12517e-13, global = 5.49855e-13, cumulative = -1.3707e-07
DILUPBiCGStab:  Solving for epsilon, Initial residual = 1.65983e-06, Final residual = 1.88022e-11, No Iterations 1
DILUPBiCGStab:  Solving for k, Initial residual = 2.96049e-06, Final residual = 3.2533e-11, No Iterations 1
ExecutionTime = 0.1 s  ClockTime = 0 s

Courant Number mean: 0.00518777 max: 0.0226902
Time = 710.42

diagonal:  Solving for rho, Initial residual = 0, Final residual = 0, No Iterations 0
DILUPBiCGStab:  Solving for Ux, Initial residual = 3.29689e-06, Final residual = 2.27843e-11, No Iterations 1
DILUPBiCGStab:  Solving for Uy, Initial residual = 2.01986e-06, Final residual = 1.43756e-11, No Iterations 1
DILUPBiCGStab:  Solving for h, Initial residual = 1.33421e-05, Final residual = 8.01424e-11, No Iterations 1
DICPCG:  Solving for p_rgh, Initial residual = 0.000125362, Final residual = 9.33824e-07, No Iterations 20
diagonal:  Solving for rho, Initial residual = 0, Final residual = 0, No Iterations 0
time step continuity errors : sum local = 4.50459e-11, global = 2.59346e-12, cumulative = -1.37067e-07
DICPCG:  Solving for p_rgh, Initial residual = 1.19844e-06, Final residual = 7.87138e-09, No Iterations 23
diagonal:  Solving for rho, Initial residual = 0, Final residual = 0, No Iterations 0
time step continuity errors : sum local = 8.13911e-13, global = 7.03128e-13, cumulative = -1.37067e-07
DILUPBiCGStab:  Solving for epsilon, Initial residual = 1.65947e-06, Final residual = 1.87967e-11, No Iterations 1
DILUPBiCGStab:  Solving for k, Initial residual = 2.95972e-06, Final residual = 3.2523e-11, No Iterations 1
ExecutionTime = 0.1 s  ClockTime = 0 s

Courant Number mean: 0.00518777 max: 0.0226902
Time = 710.43

diagonal:  Solving for rho, Initial residual = 0, Final residual = 0, No Iterations 0
DILUPBiCGStab:  Solving for Ux, Initial residual = 1.99516e-06, Final residual = 1.40632e-11, No Iterations 1
DILUPBiCGStab:  Solving for Uy, Initial residual = 1.63073e-06, Final residual = 1.1348e-11, No Iterations 1
DILUPBiCGStab:  Solving for h, Initial residual = 1.30645e-05, Final residual = 7.85924e-11, No Iterations 1
DICPCG:  Solving for p_rgh, Initial residual = 0.000131809, Final residual = 1.10458e-06, No Iterations 20
diagonal:  Solving for rho, Initial residual = 0, Final residual = 0, No Iterations 0
time step continuity errors : sum local = 5.32415e-11, global = 2.67877e-12, cumulative = -1.37064e-07
DICPCG:  Solving for p_rgh, Initial residual = 1.33565e-06, Final residual = 5.95972e-09, No Iterations 23
diagonal:  Solving for rho, Initial residual = 0, Final residual = 0, No Iterations 0
time step continuity errors : sum local = 7.86515e-13, global = 7.22756e-13, cumulative = -1.37063e-07
DILUPBiCGStab:  Solving for epsilon, Initial residual = 1.65987e-06, Final residual = 1.8803e-11, No Iterations 1
DILUPBiCGStab:  Solving for k, Initial residual = 2.96013e-06, Final residual = 3.25298e-11, No Iterations 1
ExecutionTime = 0.1 s  ClockTime = 0 s

Courant Number mean: 0.00518777 max: 0.0226903
Time = 710.44

diagonal:  Solving for rho, Initial residual = 0, Final residual = 0, No Iterations 0
DILUPBiCGStab:  Solving for Ux, Initial residual = 1.61074e-06, Final residual = 1.12464e-11, No Iterations 1
DILUPBiCGStab:  Solving for Uy, Initial residual = 1.71358e-06, Final residual = 1.18018e-11, No Iterations 1
DILUPBiCGStab:  Solving for h, Initial residual = 1.30229e-05, Final residual = 7.81518e-11, No Iterations 1
DICPCG:  Solving for p_rgh, Initial residual = 0.000117145, Final residual = 1.06089e-06, No Iterations 18
diagonal:  Solving for rho, Initial residual = 0, Final residual = 0, No Iterations 0
time step continuity errors : sum local = 5.13847e-11, global = 4.26123e-12, cumulative = -1.37059e-07
DICPCG:  Solving for p_rgh, Initial residual = 1.21165e-06, Final residual = 8.09588e-09, No Iterations 24
diagonal:  Solving for rho, Initial residual = 0, Final residual = 0, No Iterations 0
time step continuity errors : sum local = 7.63129e-13, global = 6.19277e-13, cumulative = -1.37058e-07
DILUPBiCGStab:  Solving for epsilon, Initial residual = 1.6609e-06, Final residual = 1.88189e-11, No Iterations 1
DILUPBiCGStab:  Solving for k, Initial residual = 2.9615e-06, Final residual = 3.25505e-11, No Iterations 1
ExecutionTime = 0.1 s  ClockTime = 0 s

Courant Number mean: 0.00518777 max: 0.0226904
Time = 710.45

diagonal:  Solving for rho, Initial residual = 0, Final residual = 0, No Iterations 0
DILUPBiCGStab:  Solving for Ux, Initial residual = 2.46363e-06, Final residual = 1.59099e-11, No Iterations 1
DILUPBiCGStab:  Solving for Uy, Initial residual = 2.14613e-06, Final residual = 1.49488e-11, No Iterations 1
DILUPBiCGStab:  Solving for h, Initial residual = 1.3193e-05, Final residual = 7.87059e-11, No Iterations 1
DICPCG:  Solving for p_rgh, Initial residual = 8.62611e-05, Final residual = 5.91269e-07, No Iterations 16
diagonal:  Solving for rho, Initial residual = 0, Final residual = 0, No Iterations 0
time step continuity errors : sum local = 2.85329e-11, global = 1.64916e-12, cumulative = -1.37057e-07
DICPCG:  Solving for p_rgh, Initial residual = 7.01853e-07, Final residual = 6.70102e-09, No Iterations 21
diagonal:  Solving for rho, Initial residual = 0, Final residual = 0, No Iterations 0
time step continuity errors : sum local = 5.83014e-13, global = 4.28051e-13, cumulative = -1.37056e-07
DILUPBiCGStab:  Solving for epsilon, Initial residual = 1.66235e-06, Final residual = 1.88411e-11, No Iterations 1
DILUPBiCGStab:  Solving for k, Initial residual = 2.96353e-06, Final residual = 3.25804e-11, No Iterations 1
ExecutionTime = 0.1 s  ClockTime = 0 s

Courant Number mean: 0.00518777 max: 0.0226905
Time = 710.46

diagonal:  Solving for rho, Initial residual = 0, Final residual = 0, No Iterations 0
DILUPBiCGStab:  Solving for Ux, Initial residual = 3.26314e-06, Final residual = 2.03774e-11, No Iterations 1
DILUPBiCGStab:  Solving for Uy, Initial residual = 2.54722e-06, Final residual = 1.7816e-11, No Iterations 1
DILUPBiCGStab:  Solving for h, Initial residual = 1.35235e-05, Final residual = 8.00309e-11, No Iterations 1
DICPCG:  Solving for p_rgh, Initial residual = 4.67706e-05, Final residual = 3.92411e-07, No Iterations 21
diagonal:  Solving for rho, Initial residual = 0, Final residual = 0, No Iterations 0
time step continuity errors : sum local = 1.9628e-11, global = 1.82543e-12, cumulative = -1.37055e-07
DICPCG:  Solving for p_rgh, Initial residual = 4.49079e-07, Final residual = 9.79025e-09, No Iterations 19
diagonal:  Solving for rho, Initial residual = 0, Final residual = 0, No Iterations 0
time step continuity errors : sum local = 5.56452e-13, global = 2.76477e-13, cumulative = -1.37054e-07
DILUPBiCGStab:  Solving for epsilon, Initial residual = 1.66395e-06, Final residual = 1.8866e-11, No Iterations 1
DILUPBiCGStab:  Solving for k, Initial residual = 2.96581e-06, Final residual = 3.26136e-11, No Iterations 1
ExecutionTime = 0.11 s  ClockTime = 0 s

Courant Number mean: 0.00518778 max: 0.0226906
Time = 710.47

diagonal:  Solving for rho, Initial residual = 0, Final residual = 0, No Iterations 0
DILUPBiCGStab:  Solving for Ux, Initial residual = 3.62806e-06, Final residual = 2.25012e-11, No Iterations 1
DILUPBiCGStab:  Solving for Uy, Initial residual = 2.73731e-06, Final residual = 1.91665e-11, No Iterations 1
DILUPBiCGStab:  Solving for h, Initial residual = 1.3945e-05, Final residual = 8.18439e-11, No Iterations 1
DICPCG:  Solving for p_rgh, Initial residual = 2.18762e-05, Final residual = 1.34043e-07, No Iterations 22
diagonal:  Solving for rho, Initial residual = 0, Final residual = 0, No Iterations 0
time step continuity errors : sum local = 6.95335e-12, global = 1.99843e-12, cumulative = -1.37052e-07
DICPCG:  Solving for p_rgh, Initial residual = 1.85105e-07, Final residual = 6.18349e-09, No Iterations 18
diagonal:  Solving for rho, Initial residual = 0, Final residual = 0, No Iterations 0
time step continuity errors : sum local = 3.45947e-13, global = -7.99934e-15, cumulative = -1.37052e-07
DILUPBiCGStab:  Solving for epsilon, Initial residual = 1.66545e-06, Final residual = 1.88902e-11, No Iterations 1
DILUPBiCGStab:  Solving for k, Initial residual = 2.96797e-06, Final residual = 3.26451e-11, No Iterations 1
ExecutionTime = 0.11 s  ClockTime = 0 s

Courant Number mean: 0.00518778 max: 0.0226908
Time = 710.48

diagonal:  Solving for rho, Initial residual = 0, Final residual = 0, No Iterations 0
DILUPBiCGStab:  Solving for Ux, Initial residual = 3.48588e-06, Final residual = 2.16655e-11, No Iterations 1
DILUPBiCGStab:  Solving for Uy, Initial residual = 2.70342e-06, Final residual = 1.88339e-11, No Iterations 1
DILUPBiCGStab:  Solving for h, Initial residual = 1.43802e-05, Final residual = 8.3767e-11, No Iterations 1
DICPCG:  Solving for p_rgh, Initial residual = 4.23093e-05, Final residual = 3.96265e-07, No Iterations 18
diagonal:  Solving for rho, Initial residual = 0, Final residual = 0, No Iterations 0
time step continuity errors : sum local = 1.96786e-11, global = 1.75149e-12, cumulative = -1.37051e-07
DICPCG:  Solving for p_rgh, Initial residual = 5.30907e-07, Final residual = 9.83571e-09, No Iterations 21
diagonal:  Solving for rho, Initial residual = 0, Final residual = 0, No Iterations 0
time step continuity errors : sum local = 5.6534e-13, global = -2.12909e-13, cumulative = -1.37051e-07
DILUPBiCGStab:  Solving for epsilon, Initial residual = 1.66667e-06, Final residual = 1.89101e-11, No Iterations 1
DILUPBiCGStab:  Solving for k, Initial residual = 2.9697e-06, Final residual = 3.26708e-11, No Iterations 1
ExecutionTime = 0.11 s  ClockTime = 0 s

Courant Number mean: 0.00518778 max: 0.0226909
Time = 710.49

diagonal:  Solving for rho, Initial residual = 0, Final residual = 0, No Iterations 0
DILUPBiCGStab:  Solving for Ux, Initial residual = 2.94631e-06, Final residual = 1.85944e-11, No Iterations 1
DILUPBiCGStab:  Solving for Uy, Initial residual = 2.48002e-06, Final residual = 1.70966e-11, No Iterations 1
DILUPBiCGStab:  Solving for h, Initial residual = 1.47611e-05, Final residual = 8.5395e-11, No Iterations 1
DICPCG:  Solving for p_rgh, Initial residual = 6.33009e-05, Final residual = 4.7178e-07, No Iterations 20
diagonal:  Solving for rho, Initial residual = 0, Final residual = 0, No Iterations 0
time step continuity errors : sum local = 2.26107e-11, global = 1.84525e-12, cumulative = -1.37049e-07
DICPCG:  Solving for p_rgh, Initial residual = 6.13759e-07, Final residual = 6.31784e-09, No Iterations 22
diagonal:  Solving for rho, Initial residual = 0, Final residual = 0, No Iterations 0
time step continuity errors : sum local = 5.03237e-13, global = -3.54689e-13, cumulative = -1.37049e-07
DILUPBiCGStab:  Solving for epsilon, Initial residual = 1.66746e-06, Final residual = 1.89238e-11, No Iterations 1
DILUPBiCGStab:  Solving for k, Initial residual = 2.97079e-06, Final residual = 3.26885e-11, No Iterations 1
ExecutionTime = 0.11 s  ClockTime = 0 s

Courant Number mean: 0.00518779 max: 0.022691
Time = 710.5

diagonal:  Solving for rho, Initial residual = 0, Final residual = 0, No Iterations 0
DILUPBiCGStab:  Solving for Ux, Initial residual = 2.22299e-06, Final residual = 1.44659e-11, No Iterations 1
DILUPBiCGStab:  Solving for Uy, Initial residual = 2.13191e-06, Final residual = 1.45327e-11, No Iterations 1
DILUPBiCGStab:  Solving for h, Initial residual = 1.50297e-05, Final residual = 8.64927e-11, No Iterations 1
DICPCG:  Solving for p_rgh, Initial residual = 7.71366e-05, Final residual = 6.63545e-07, No Iterations 20
diagonal:  Solving for rho, Initial residual = 0, Final residual = 0, No Iterations 0
time step continuity errors : sum local = 3.18222e-11, global = 1.68411e-12, cumulative = -1.37048e-07
DICPCG:  Solving for p_rgh, Initial residual = 8.01665e-07, Final residual = 8.84021e-09, No Iterations 22
diagonal:  Solving for rho, Initial residual = 0, Final residual = 0, No Iterations 0
time step continuity errors : sum local = 6.4502e-13, global = -4.33742e-13, cumulative = -1.37048e-07
DILUPBiCGStab:  Solving for epsilon, Initial residual = 1.66778e-06, Final residual = 1.89305e-11, No Iterations 1
DILUPBiCGStab:  Solving for k, Initial residual = 2.97117e-06, Final residual = 3.2696e-11, No Iterations 1
ExecutionTime = 0.12 s  ClockTime = 0 s

Courant Number mean: 0.00518779 max: 0.022691
Time = 710.51

diagonal:  Solving for rho, Initial residual = 0, Final residual = 0, No Iterations 0
DILUPBiCGStab:  Solving for Ux, Initial residual = 1.62536e-06, Final residual = 1.11782e-11, No Iterations 1
DILUPBiCGStab:  Solving for Uy, Initial residual = 1.75506e-06, Final residual = 1.19582e-11, No Iterations 1
DILUPBiCGStab:  Solving for h, Initial residual = 1.51543e-05, Final residual = 8.68931e-11, No Iterations 1
DICPCG:  Solving for p_rgh, Initial residual = 7.79201e-05, Final residual = 7.33377e-07, No Iterations 20
diagonal:  Solving for rho, Initial residual = 0, Final residual = 0, No Iterations 0
time step continuity errors : sum local = 3.51231e-11, global = 1.64363e-12, cumulative = -1.37046e-07
DICPCG:  Solving for p_rgh, Initial residual = 8.48773e-07, Final residual = 6.79667e-09, No Iterations 22
diagonal:  Solving for rho, Initial residual = 0, Final residual = 0, No Iterations 0
time step continuity errors : sum local = 5.90529e-13, global = -4.21595e-13, cumulative = -1.37047e-07
DILUPBiCGStab:  Solving for epsilon, Initial residual = 1.66765e-06, Final residual = 1.89307e-11, No Iterations 1
DILUPBiCGStab:  Solving for k, Initial residual = 2.97086e-06, Final residual = 3.26939e-11, No Iterations 1
ExecutionTime = 0.12 s  ClockTime = 0 s

Courant Number mean: 0.00518779 max: 0.022691
Time = 710.52

diagonal:  Solving for rho, Initial residual = 0, Final residual = 0, No Iterations 0
DILUPBiCGStab:  Solving for Ux, Initial residual = 1.60111e-06, Final residual = 1.13007e-11, No Iterations 1
DILUPBiCGStab:  Solving for Uy, Initial residual = 1.48879e-06, Final residual = 1.05277e-11, No Iterations 1
DILUPBiCGStab:  Solving for h, Initial residual = 1.5131e-05, Final residual = 8.65814e-11, No Iterations 1
DICPCG:  Solving for p_rgh, Initial residual = 6.66704e-05, Final residual = 5.65163e-07, No Iterations 18
diagonal:  Solving for rho, Initial residual = 0, Final residual = 0, No Iterations 0
time step continuity errors : sum local = 2.73492e-11, global = 8.79746e-13, cumulative = -1.37046e-07
DICPCG:  Solving for p_rgh, Initial residual = 6.61248e-07, Final residual = 8.85311e-09, No Iterations 22
diagonal:  Solving for rho, Initial residual = 0, Final residual = 0, No Iterations 0
time step continuity errors : sum local = 5.46645e-13, global = -3.46975e-13, cumulative = -1.37046e-07
DILUPBiCGStab:  Solving for epsilon, Initial residual = 1.66718e-06, Final residual = 1.89256e-11, No Iterations 1
DILUPBiCGStab:  Solving for k, Initial residual = 2.97002e-06, Final residual = 3.26841e-11, No Iterations 1
ExecutionTime = 0.12 s  ClockTime = 0 s

Courant Number mean: 0.00518779 max: 0.022691
Time = 710.53

diagonal:  Solving for rho, Initial residual = 0, Final residual = 0, No Iterations 0
DILUPBiCGStab:  Solving for Ux, Initial residual = 2.00715e-06, Final residual = 1.41471e-11, No Iterations 1
DILUPBiCGStab:  Solving for Uy, Initial residual = 1.50705e-06, Final residual = 1.098e-11, No Iterations 1
DILUPBiCGStab:  Solving for h, Initial residual = 1.49803e-05, Final residual = 8.56564e-11, No Iterations 1
DICPCG:  Solving for p_rgh, Initial residual = 4.67873e-05, Final residual = 3.84383e-07, No Iterations 16
diagonal:  Solving for rho, Initial residual = 0, Final residual = 0, No Iterations 0
time step continuity errors : sum local = 1.88973e-11, global = 2.66893e-12, cumulative = -1.37044e-07
DICPCG:  Solving for p_rgh, Initial residual = 4.58274e-07, Final residual = 9.07123e-09, No Iterations 18
diagonal:  Solving for rho, Initial residual = 0, Final residual = 0, No Iterations 0
time step continuity errors : sum local = 5.2886e-13, global = -2.24692e-13, cumulative = -1.37044e-07
DILUPBiCGStab:  Solving for epsilon, Initial residual = 1.66649e-06, Final residual = 1.89172e-11, No Iterations 1
DILUPBiCGStab:  Solving for k, Initial residual = 2.96885e-06, Final residual = 3.267e-11, No Iterations 1
ExecutionTime = 0.12 s  ClockTime = 0 s

Courant Number mean: 0.00518779 max: 0.0226909
Time = 710.54

diagonal:  Solving for rho, Initial residual = 0, Final residual = 0, No Iterations 0
DILUPBiCGStab:  Solving for Ux, Initial residual = 2.34465e-06, Final residual = 1.64773e-11, No Iterations 1
DILUPBiCGStab:  Solving for Uy, Initial residual = 1.61577e-06, Final residual = 1.16681e-11, No Iterations 1
DILUPBiCGStab:  Solving for h, Initial residual = 1.47399e-05, Final residual = 8.42993e-11, No Iterations 1
DICPCG:  Solving for p_rgh, Initial residual = 2.5096e-05, Final residual = 2.34419e-07, No Iterations 21
diagonal:  Solving for rho, Initial residual = 0, Final residual = 0, No Iterations 0
time step continuity errors : sum local = 1.15337e-11, global = 2.16945e-12, cumulative = -1.37042e-07
DICPCG:  Solving for p_rgh, Initial residual = 2.67609e-07, Final residual = 9.95961e-09, No Iterations 15
diagonal:  Solving for rho, Initial residual = 0, Final residual = 0, No Iterations 0
time step continuity errors : sum local = 5.13564e-13, global = -9.74334e-14, cumulative = -1.37042e-07
DILUPBiCGStab:  Solving for epsilon, Initial residual = 1.66574e-06, Final residual = 1.89078e-11, No Iterations 1
DILUPBiCGStab:  Solving for k, Initial residual = 2.96759e-06, Final residual = 3.26549e-11, No Iterations 1
ExecutionTime = 0.12 s  ClockTime = 0 s

Courant Number mean: 0.00518779 max: 0.0226909
Time = 710.55

diagonal:  Solving for rho, Initial residual = 0, Final residual = 0, No Iterations 0
DILUPBiCGStab:  Solving for Ux, Initial residual = 2.46245e-06, Final residual = 1.72757e-11, No Iterations 1
DILUPBiCGStab:  Solving for Uy, Initial residual = 1.66823e-06, Final residual = 1.19791e-11, No Iterations 1
DILUPBiCGStab:  Solving for h, Initial residual = 1.44577e-05, Final residual = 8.27417e-11, No Iterations 1
DICPCG:  Solving for p_rgh, Initial residual = 1.87135e-05, Final residual = 1.52729e-07, No Iterations 21
diagonal:  Solving for rho, Initial residual = 0, Final residual = 0, No Iterations 0
time step continuity errors : sum local = 7.86078e-12, global = 2.06571e-12, cumulative = -1.3704e-07
DICPCG:  Solving for p_rgh, Initial residual = 1.97588e-07, Final residual = 9.95809e-09, No Iterations 13
diagonal:  Solving for rho, Initial residual = 0, Final residual = 0, No Iterations 0
time step continuity errors : sum local = 5.03458e-13, global = 4.78952e-14, cumulative = -1.3704e-07
DILUPBiCGStab:  Solving for epsilon, Initial residual = 1.66507e-06, Final residual = 1.88994e-11, No Iterations 1
DILUPBiCGStab:  Solving for k, Initial residual = 2.96644e-06, Final residual = 3.26413e-11, No Iterations 1
ExecutionTime = 0.13 s  ClockTime = 0 s

Courant Number mean: 0.00518779 max: 0.0226908
Time = 710.56

diagonal:  Solving for rho, Initial residual = 0, Final residual = 0, No Iterations 0
DILUPBiCGStab:  Solving for Ux, Initial residual = 2.34959e-06, Final residual = 1.64858e-11, No Iterations 1
DILUPBiCGStab:  Solving for Uy, Initial residual = 1.65077e-06, Final residual = 1.17769e-11, No Iterations 1
DILUPBiCGStab:  Solving for h, Initial residual = 1.41815e-05, Final residual = 8.12162e-11, No Iterations 1
DICPCG:  Solving for p_rgh, Initial residual = 2.99904e-05, Final residual = 2.19528e-07, No Iterations 20
diagonal:  Solving for rho, Initial residual = 0, Final residual = 0, No Iterations 0
time step continuity errors : sum local = 1.06365e-11, global = 2.0283e-12, cumulative = -1.37038e-07
DICPCG:  Solving for p_rgh, Initial residual = 2.88827e-07, Final residual = 6.78093e-09, No Iterations 16
diagonal:  Solving for rho, Initial residual = 0, Final residual = 0, No Iterations 0
time step continuity errors : sum local = 3.96003e-13, global = 1.54173e-13, cumulative = -1.37037e-07
DILUPBiCGStab:  Solving for epsilon, Initial residual = 1.6646e-06, Final residual = 1.88938e-11, No Iterations 1
DILUPBiCGStab:  Solving for k, Initial residual = 2.9656e-06, Final residual = 3.26317e-11, No Iterations 1
ExecutionTime = 0.13 s  ClockTime = 0 s

Courant Number mean: 0.00518779 max: 0.0226908
Time = 710.57

diagonal:  Solving for rho, Initial residual = 0, Final residual = 0, No Iterations 0
DILUPBiCGStab:  Solving for Ux, Initial residual = 2.06908e-06, Final residual = 1.45098e-11, No Iterations 1
DILUPBiCGStab:  Solving for Uy, Initial residual = 1.58165e-06, Final residual = 1.12684e-11, No Iterations 1
DILUPBiCGStab:  Solving for h, Initial residual = 1.39515e-05, Final residual = 7.99135e-11, No Iterations 1
DICPCG:  Solving for p_rgh, Initial residual = 4.09489e-05, Final residual = 3.25502e-07, No Iterations 20
diagonal:  Solving for rho, Initial residual = 0, Final residual = 0, No Iterations 0
time step continuity errors : sum local = 1.57098e-11, global = 2.28819e-12, cumulative = -1.37035e-07
DICPCG:  Solving for p_rgh, Initial residual = 4.22722e-07, Final residual = 9.98265e-09, No Iterations 16
diagonal:  Solving for rho, Initial residual = 0, Final residual = 0, No Iterations 0
time step continuity errors : sum local = 5.60971e-13, global = 2.55457e-13, cumulative = -1.37035e-07
DILUPBiCGStab:  Solving for epsilon, Initial residual = 1.6644e-06, Final residual = 1.88923e-11, No Iterations 1
DILUPBiCGStab:  Solving for k, Initial residual = 2.96516e-06, Final residual = 3.26277e-11, No Iterations 1
ExecutionTime = 0.13 s  ClockTime = 0 s

Courant Number mean: 0.00518779 max: 0.0226908
Time = 710.58

diagonal:  Solving for rho, Initial residual = 0, Final residual = 0, No Iterations 0
DILUPBiCGStab:  Solving for Ux, Initial residual = 1.73533e-06, Final residual = 1.21461e-11, No Iterations 1
DILUPBiCGStab:  Solving for Uy, Initial residual = 1.52089e-06, Final residual = 1.0721e-11, No Iterations 1
DILUPBiCGStab:  Solving for h, Initial residual = 1.3796e-05, Final residual = 7.89714e-11, No Iterations 1
DICPCG:  Solving for p_rgh, Initial residual = 4.76355e-05, Final residual = 3.90151e-07, No Iterations 20
diagonal:  Solving for rho, Initial residual = 0, Final residual = 0, No Iterations 0
time step continuity errors : sum local = 1.88419e-11, global = 2.28946e-12, cumulative = -1.37033e-07
DICPCG:  Solving for p_rgh, Initial residual = 4.82281e-07, Final residual = 9.96088e-09, No Iterations 12
diagonal:  Solving for rho, Initial residual = 0, Final residual = 0, No Iterations 0
time step continuity errors : sum local = 6.08258e-13, global = 3.40573e-13, cumulative = -1.37032e-07
DILUPBiCGStab:  Solving for epsilon, Initial residual = 1.66448e-06, Final residual = 1.88951e-11, No Iterations 1
DILUPBiCGStab:  Solving for k, Initial residual = 2.96516e-06, Final residual = 3.26298e-11, No Iterations 1
ExecutionTime = 0.13 s  ClockTime = 0 s

Courant Number mean: 0.00518779 max: 0.0226908
Time = 710.59

diagonal:  Solving for rho, Initial residual = 0, Final residual = 0, No Iterations 0
DILUPBiCGStab:  Solving for Ux, Initial residual = 1.53109e-06, Final residual = 1.08233e-11, No Iterations 1
DILUPBiCGStab:  Solving for Uy, Initial residual = 1.5395e-06, Final residual = 1.07161e-11, No Iterations 1
DILUPBiCGStab:  Solving for h, Initial residual = 1.37287e-05, Final residual = 7.84551e-11, No Iterations 1
DICPCG:  Solving for p_rgh, Initial residual = 4.64261e-05, Final residual = 4.06584e-07, No Iterations 20
[...]

Courant Number mean: 0.00518813 max: 0.0227105
Time = 719.86

diagonal:  Solving for rho, Initial residual = 0, Final residual = 0, No Iterations 0
DILUPBiCGStab:  Solving for Ux, Initial residual = 2.36716e-06, Final residual = 1.21155e-11, No Iterations 1
DILUPBiCGStab:  Solving for Uy, Initial residual = 2.01224e-06, Final residual = 1.31496e-11, No Iterations 1
DILUPBiCGStab:  Solving for h, Initial residual = 1.37475e-05, Final residual = 6.89487e-11, No Iterations 1
DICPCG:  Solving for p_rgh, Initial residual = 4.09334e-06, Final residual = 2.74404e-08, No Iterations 15
diagonal:  Solving for rho, Initial residual = 0, Final residual = 0, No Iterations 0
time step continuity errors : sum local = 2.5605e-12, global = 1.9726e-12, cumulative = -1.35149e-07
DICPCG:  Solving for p_rgh, Initial residual = 5.92471e-08, Final residual = 5.75604e-09, No Iterations 16
diagonal:  Solving for rho, Initial residual = 0, Final residual = 0, No Iterations 0
time step continuity errors : sum local = 3.34978e-13, global = 7.78468e-15, cumulative = -1.35149e-07
DILUPBiCGStab:  Solving for epsilon, Initial residual = 1.98529e-06, Final residual = 2.50712e-11, No Iterations 1
DILUPBiCGStab:  Solving for k, Initial residual = 3.34213e-06, Final residual = 3.82421e-11, No Iterations 1
ExecutionTime = 2.21 s  ClockTime = 2 s

Courant Number mean: 0.00518813 max: 0.0227106
Time = 719.87

diagonal:  Solving for rho, Initial residual = 0, Final residual = 0, No Iterations 0
DILUPBiCGStab:  Solving for Ux, Initial residual = 2.36954e-06, Final residual = 1.21198e-11, No Iterations 1
DILUPBiCGStab:  Solving for Uy, Initial residual = 2.01349e-06, Final residual = 1.31542e-11, No Iterations 1
DILUPBiCGStab:  Solving for h, Initial residual = 1.37473e-05, Final residual = 6.89453e-11, No Iterations 1
DICPCG:  Solving for p_rgh, Initial residual = 4.0978e-06, Final residual = 2.75359e-08, No Iterations 15
diagonal:  Solving for rho, Initial residual = 0, Final residual = 0, No Iterations 0
time step continuity errors : sum local = 2.56102e-12, global = 1.97036e-12, cumulative = -1.35147e-07
DICPCG:  Solving for p_rgh, Initial residual = 5.92205e-08, Final residual = 5.76577e-09, No Iterations 16
diagonal:  Solving for rho, Initial residual = 0, Final residual = 0, No Iterations 0
time step continuity errors : sum local = 3.21206e-13, global = 6.72102e-15, cumulative = -1.35147e-07
DILUPBiCGStab:  Solving for epsilon, Initial residual = 1.98606e-06, Final residual = 2.50853e-11, No Iterations 1
DILUPBiCGStab:  Solving for k, Initial residual = 3.34304e-06, Final residual = 3.82547e-11, No Iterations 1
ExecutionTime = 2.21 s  ClockTime = 2 s

Courant Number mean: 0.00518813 max: 0.0227106
Time = 719.88

diagonal:  Solving for rho, Initial residual = 0, Final residual = 0, No Iterations 0
DILUPBiCGStab:  Solving for Ux, Initial residual = 2.37193e-06, Final residual = 1.21242e-11, No Iterations 1
DILUPBiCGStab:  Solving for Uy, Initial residual = 2.01474e-06, Final residual = 1.31587e-11, No Iterations 1
DILUPBiCGStab:  Solving for h, Initial residual = 1.37472e-05, Final residual = 6.8942e-11, No Iterations 1
DICPCG:  Solving for p_rgh, Initial residual = 4.10105e-06, Final residual = 2.77379e-08, No Iterations 15
diagonal:  Solving for rho, Initial residual = 0, Final residual = 0, No Iterations 0
time step continuity errors : sum local = 2.57931e-12, global = 1.97498e-12, cumulative = -1.35145e-07
DICPCG:  Solving for p_rgh, Initial residual = 5.96073e-08, Final residual = 5.82359e-09, No Iterations 16
diagonal:  Solving for rho, Initial residual = 0, Final residual = 0, No Iterations 0
time step continuity errors : sum local = 3.25584e-13, global = 1.18393e-14, cumulative = -1.35145e-07
DILUPBiCGStab:  Solving for epsilon, Initial residual = 1.98682e-06, Final residual = 2.50993e-11, No Iterations 1
DILUPBiCGStab:  Solving for k, Initial residual = 3.34394e-06, Final residual = 3.82674e-11, No Iterations 1
ExecutionTime = 2.22 s  ClockTime = 2 s

Courant Number mean: 0.00518813 max: 0.0227106
Time = 719.89

diagonal:  Solving for rho, Initial residual = 0, Final residual = 0, No Iterations 0
DILUPBiCGStab:  Solving for Ux, Initial residual = 2.37432e-06, Final residual = 1.21285e-11, No Iterations 1
DILUPBiCGStab:  Solving for Uy, Initial residual = 2.01599e-06, Final residual = 1.31634e-11, No Iterations 1
DILUPBiCGStab:  Solving for h, Initial residual = 1.3747e-05, Final residual = 6.89386e-11, No Iterations 1
DICPCG:  Solving for p_rgh, Initial residual = 4.10584e-06, Final residual = 2.79663e-08, No Iterations 15
diagonal:  Solving for rho, Initial residual = 0, Final residual = 0, No Iterations 0
time step continuity errors : sum local = 2.58698e-12, global = 1.97747e-12, cumulative = -1.35143e-07
DICPCG:  Solving for p_rgh, Initial residual = 5.99757e-08, Final residual = 5.89425e-09, No Iterations 16
diagonal:  Solving for rho, Initial residual = 0, Final residual = 0, No Iterations 0
time step continuity errors : sum local = 3.20245e-13, global = 1.15915e-14, cumulative = -1.35143e-07
DILUPBiCGStab:  Solving for epsilon, Initial residual = 1.98759e-06, Final residual = 2.51134e-11, No Iterations 1
DILUPBiCGStab:  Solving for k, Initial residual = 3.34485e-06, Final residual = 3.828e-11, No Iterations 1
ExecutionTime = 2.22 s  ClockTime = 2 s

Courant Number mean: 0.00518812 max: 0.0227106
Time = 719.9

diagonal:  Solving for rho, Initial residual = 0, Final residual = 0, No Iterations 0
DILUPBiCGStab:  Solving for Ux, Initial residual = 2.37672e-06, Final residual = 1.21329e-11, No Iterations 1
DILUPBiCGStab:  Solving for Uy, Initial residual = 2.01725e-06, Final residual = 1.3168e-11, No Iterations 1
DILUPBiCGStab:  Solving for h, Initial residual = 1.37468e-05, Final residual = 6.89353e-11, No Iterations 1
DICPCG:  Solving for p_rgh, Initial residual = 4.11e-06, Final residual = 2.79153e-08, No Iterations 15
diagonal:  Solving for rho, Initial residual = 0, Final residual = 0, No Iterations 0
time step continuity errors : sum local = 2.57885e-12, global = 1.97838e-12, cumulative = -1.35141e-07
DICPCG:  Solving for p_rgh, Initial residual = 5.96231e-08, Final residual = 5.87159e-09, No Iterations 16
diagonal:  Solving for rho, Initial residual = 0, Final residual = 0, No Iterations 0
time step continuity errors : sum local = 3.26687e-13, global = 1.48825e-14, cumulative = -1.35141e-07
DILUPBiCGStab:  Solving for epsilon, Initial residual = 1.98836e-06, Final residual = 2.51276e-11, No Iterations 1
DILUPBiCGStab:  Solving for k, Initial residual = 3.34576e-06, Final residual = 3.82927e-11, No Iterations 1
ExecutionTime = 2.22 s  ClockTime = 2 s

Courant Number mean: 0.00518812 max: 0.0227106
Time = 719.91

diagonal:  Solving for rho, Initial residual = 0, Final residual = 0, No Iterations 0
DILUPBiCGStab:  Solving for Ux, Initial residual = 2.37912e-06, Final residual = 1.21373e-11, No Iterations 1
DILUPBiCGStab:  Solving for Uy, Initial residual = 2.01851e-06, Final residual = 1.31726e-11, No Iterations 1
DILUPBiCGStab:  Solving for h, Initial residual = 1.37466e-05, Final residual = 6.8932e-11, No Iterations 1
DICPCG:  Solving for p_rgh, Initial residual = 4.11383e-06, Final residual = 2.77293e-08, No Iterations 15
diagonal:  Solving for rho, Initial residual = 0, Final residual = 0, No Iterations 0
time step continuity errors : sum local = 2.57364e-12, global = 1.9805e-12, cumulative = -1.35139e-07
DICPCG:  Solving for p_rgh, Initial residual = 5.95825e-08, Final residual = 5.83697e-09, No Iterations 16
diagonal:  Solving for rho, Initial residual = 0, Final residual = 0, No Iterations 0
time step continuity errors : sum local = 3.23065e-13, global = 2.22983e-15, cumulative = -1.35139e-07
DILUPBiCGStab:  Solving for epsilon, Initial residual = 1.98913e-06, Final residual = 2.51417e-11, No Iterations 1
DILUPBiCGStab:  Solving for k, Initial residual = 3.34667e-06, Final residual = 3.83054e-11, No Iterations 1
ExecutionTime = 2.22 s  ClockTime = 2 s

Courant Number mean: 0.00518812 max: 0.0227107
Time = 719.92

diagonal:  Solving for rho, Initial residual = 0, Final residual = 0, No Iterations 0
DILUPBiCGStab:  Solving for Ux, Initial residual = 2.38153e-06, Final residual = 1.21416e-11, No Iterations 1
DILUPBiCGStab:  Solving for Uy, Initial residual = 2.01977e-06, Final residual = 1.31773e-11, No Iterations 1
DILUPBiCGStab:  Solving for h, Initial residual = 1.37464e-05, Final residual = 6.89286e-11, No Iterations 1
DICPCG:  Solving for p_rgh, Initial residual = 4.11891e-06, Final residual = 2.76414e-08, No Iterations 15
diagonal:  Solving for rho, Initial residual = 0, Final residual = 0, No Iterations 0
time step continuity errors : sum local = 2.57043e-12, global = 1.97357e-12, cumulative = -1.35137e-07
DICPCG:  Solving for p_rgh, Initial residual = 5.95337e-08, Final residual = 5.79203e-09, No Iterations 16
diagonal:  Solving for rho, Initial residual = 0, Final residual = 0, No Iterations 0
time step continuity errors : sum local = 3.18323e-13, global = 1.12296e-14, cumulative = -1.35137e-07
DILUPBiCGStab:  Solving for epsilon, Initial residual = 1.9899e-06, Final residual = 2.51559e-11, No Iterations 1
DILUPBiCGStab:  Solving for k, Initial residual = 3.34759e-06, Final residual = 3.83182e-11, No Iterations 1
ExecutionTime = 2.23 s  ClockTime = 2 s

Courant Number mean: 0.00518812 max: 0.0227107
Time = 719.93

diagonal:  Solving for rho, Initial residual = 0, Final residual = 0, No Iterations 0
DILUPBiCGStab:  Solving for Ux, Initial residual = 2.38395e-06, Final residual = 1.2146e-11, No Iterations 1
DILUPBiCGStab:  Solving for Uy, Initial residual = 2.02104e-06, Final residual = 1.31819e-11, No Iterations 1
DILUPBiCGStab:  Solving for h, Initial residual = 1.37462e-05, Final residual = 6.89253e-11, No Iterations 1
DICPCG:  Solving for p_rgh, Initial residual = 4.12241e-06, Final residual = 2.76832e-08, No Iterations 15
diagonal:  Solving for rho, Initial residual = 0, Final residual = 0, No Iterations 0
time step continuity errors : sum local = 2.56981e-12, global = 1.97156e-12, cumulative = -1.35135e-07
DICPCG:  Solving for p_rgh, Initial residual = 5.97645e-08, Final residual = 5.80207e-09, No Iterations 16
diagonal:  Solving for rho, Initial residual = 0, Final residual = 0, No Iterations 0
time step continuity errors : sum local = 3.24447e-13, global = 4.77506e-15, cumulative = -1.35135e-07
DILUPBiCGStab:  Solving for epsilon, Initial residual = 1.99067e-06, Final residual = 2.51702e-11, No Iterations 1
DILUPBiCGStab:  Solving for k, Initial residual = 3.34851e-06, Final residual = 3.83309e-11, No Iterations 1
ExecutionTime = 2.23 s  ClockTime = 2 s

Courant Number mean: 0.00518812 max: 0.0227107
Time = 719.94

diagonal:  Solving for rho, Initial residual = 0, Final residual = 0, No Iterations 0
DILUPBiCGStab:  Solving for Ux, Initial residual = 2.38638e-06, Final residual = 1.21504e-11, No Iterations 1
DILUPBiCGStab:  Solving for Uy, Initial residual = 2.02231e-06, Final residual = 1.31867e-11, No Iterations 1
DILUPBiCGStab:  Solving for h, Initial residual = 1.37461e-05, Final residual = 6.8922e-11, No Iterations 1
DICPCG:  Solving for p_rgh, Initial residual = 4.12672e-06, Final residual = 2.77645e-08, No Iterations 15
diagonal:  Solving for rho, Initial residual = 0, Final residual = 0, No Iterations 0
time step continuity errors : sum local = 2.57447e-12, global = 1.97818e-12, cumulative = -1.35133e-07
DICPCG:  Solving for p_rgh, Initial residual = 5.96976e-08, Final residual = 5.85736e-09, No Iterations 16
diagonal:  Solving for rho, Initial residual = 0, Final residual = 0, No Iterations 0
time step continuity errors : sum local = 3.23038e-13, global = 6.64217e-15, cumulative = -1.35133e-07
DILUPBiCGStab:  Solving for epsilon, Initial residual = 1.99144e-06, Final residual = 2.51844e-11, No Iterations 1
DILUPBiCGStab:  Solving for k, Initial residual = 3.34942e-06, Final residual = 3.83437e-11, No Iterations 1
ExecutionTime = 2.23 s  ClockTime = 2 s

Courant Number mean: 0.00518812 max: 0.0227107
Time = 719.95

diagonal:  Solving for rho, Initial residual = 0, Final residual = 0, No Iterations 0
DILUPBiCGStab:  Solving for Ux, Initial residual = 2.38881e-06, Final residual = 1.21548e-11, No Iterations 1
DILUPBiCGStab:  Solving for Uy, Initial residual = 2.02358e-06, Final residual = 1.31913e-11, No Iterations 1
DILUPBiCGStab:  Solving for h, Initial residual = 1.37459e-05, Final residual = 6.89187e-11, No Iterations 1
DICPCG:  Solving for p_rgh, Initial residual = 4.13087e-06, Final residual = 2.76099e-08, No Iterations 15
diagonal:  Solving for rho, Initial residual = 0, Final residual = 0, No Iterations 0
time step continuity errors : sum local = 2.58175e-12, global = 1.98624e-12, cumulative = -1.35131e-07
DICPCG:  Solving for p_rgh, Initial residual = 5.96479e-08, Final residual = 5.82052e-09, No Iterations 16
diagonal:  Solving for rho, Initial residual = 0, Final residual = 0, No Iterations 0
time step continuity errors : sum local = 3.10572e-13, global = 1.57632e-14, cumulative = -1.35131e-07
DILUPBiCGStab:  Solving for epsilon, Initial residual = 1.99222e-06, Final residual = 2.51987e-11, No Iterations 1
DILUPBiCGStab:  Solving for k, Initial residual = 3.35034e-06, Final residual = 3.83565e-11, No Iterations 1
ExecutionTime = 2.23 s  ClockTime = 2 s

Courant Number mean: 0.00518812 max: 0.0227108
Time = 719.96

diagonal:  Solving for rho, Initial residual = 0, Final residual = 0, No Iterations 0
DILUPBiCGStab:  Solving for Ux, Initial residual = 2.39125e-06, Final residual = 1.21592e-11, No Iterations 1
DILUPBiCGStab:  Solving for Uy, Initial residual = 2.02486e-06, Final residual = 1.3196e-11, No Iterations 1
DILUPBiCGStab:  Solving for h, Initial residual = 1.37457e-05, Final residual = 6.89154e-11, No Iterations 1
DICPCG:  Solving for p_rgh, Initial residual = 4.13542e-06, Final residual = 2.78268e-08, No Iterations 15
diagonal:  Solving for rho, Initial residual = 0, Final residual = 0, No Iterations 0
time step continuity errors : sum local = 2.57792e-12, global = 1.97561e-12, cumulative = -1.35129e-07
DICPCG:  Solving for p_rgh, Initial residual = 5.97578e-08, Final residual = 5.76869e-09, No Iterations 16
diagonal:  Solving for rho, Initial residual = 0, Final residual = 0, No Iterations 0
time step continuity errors : sum local = 3.20953e-13, global = 6.93475e-15, cumulative = -1.35129e-07
DILUPBiCGStab:  Solving for epsilon, Initial residual = 1.99299e-06, Final residual = 2.5213e-11, No Iterations 1
DILUPBiCGStab:  Solving for k, Initial residual = 3.35127e-06, Final residual = 3.83694e-11, No Iterations 1
ExecutionTime = 2.23 s  ClockTime = 2 s

Courant Number mean: 0.00518812 max: 0.0227108
Time = 719.97

diagonal:  Solving for rho, Initial residual = 0, Final residual = 0, No Iterations 0
DILUPBiCGStab:  Solving for Ux, Initial residual = 2.39369e-06, Final residual = 1.21637e-11, No Iterations 1
DILUPBiCGStab:  Solving for Uy, Initial residual = 2.02614e-06, Final residual = 1.32007e-11, No Iterations 1
DILUPBiCGStab:  Solving for h, Initial residual = 1.37455e-05, Final residual = 6.8912e-11, No Iterations 1
DICPCG:  Solving for p_rgh, Initial residual = 4.13995e-06, Final residual = 2.77586e-08, No Iterations 15
diagonal:  Solving for rho, Initial residual = 0, Final residual = 0, No Iterations 0
time step continuity errors : sum local = 2.57674e-12, global = 1.9745e-12, cumulative = -1.35127e-07
DICPCG:  Solving for p_rgh, Initial residual = 5.97521e-08, Final residual = 5.89393e-09, No Iterations 16
diagonal:  Solving for rho, Initial residual = 0, Final residual = 0, No Iterations 0
time step continuity errors : sum local = 3.31539e-13, global = 6.02381e-15, cumulative = -1.35127e-07
DILUPBiCGStab:  Solving for epsilon, Initial residual = 1.99377e-06, Final residual = 2.52274e-11, No Iterations 1
DILUPBiCGStab:  Solving for k, Initial residual = 3.35219e-06, Final residual = 3.83824e-11, No Iterations 1
ExecutionTime = 2.24 s  ClockTime = 2 s

Courant Number mean: 0.00518812 max: 0.0227108
Time = 719.98

diagonal:  Solving for rho, Initial residual = 0, Final residual = 0, No Iterations 0
DILUPBiCGStab:  Solving for Ux, Initial residual = 2.39614e-06, Final residual = 1.21681e-11, No Iterations 1
DILUPBiCGStab:  Solving for Uy, Initial residual = 2.02742e-06, Final residual = 1.32054e-11, No Iterations 1
DILUPBiCGStab:  Solving for h, Initial residual = 1.37453e-05, Final residual = 6.89087e-11, No Iterations 1
DICPCG:  Solving for p_rgh, Initial residual = 4.14372e-06, Final residual = 2.77077e-08, No Iterations 15
diagonal:  Solving for rho, Initial residual = 0, Final residual = 0, No Iterations 0
time step continuity errors : sum local = 2.57137e-12, global = 1.97365e-12, cumulative = -1.35125e-07
DICPCG:  Solving for p_rgh, Initial residual = 5.94748e-08, Final residual = 5.80615e-09, No Iterations 16
diagonal:  Solving for rho, Initial residual = 0, Final residual = 0, No Iterations 0
time step continuity errors : sum local = 3.25197e-13, global = 1.18816e-14, cumulative = -1.35125e-07
DILUPBiCGStab:  Solving for epsilon, Initial residual = 1.99455e-06, Final residual = 2.52417e-11, No Iterations 1
DILUPBiCGStab:  Solving for k, Initial residual = 3.35312e-06, Final residual = 3.83954e-11, No Iterations 1
ExecutionTime = 2.24 s  ClockTime = 2 s

Courant Number mean: 0.00518812 max: 0.0227108
Time = 719.99

diagonal:  Solving for rho, Initial residual = 0, Final residual = 0, No Iterations 0
DILUPBiCGStab:  Solving for Ux, Initial residual = 2.3986e-06, Final residual = 1.21725e-11, No Iterations 1
DILUPBiCGStab:  Solving for Uy, Initial residual = 2.02871e-06, Final residual = 1.32101e-11, No Iterations 1
DILUPBiCGStab:  Solving for h, Initial residual = 1.37452e-05, Final residual = 6.89054e-11, No Iterations 1
DICPCG:  Solving for p_rgh, Initial residual = 4.14791e-06, Final residual = 2.77697e-08, No Iterations 15
diagonal:  Solving for rho, Initial residual = 0, Final residual = 0, No Iterations 0
time step continuity errors : sum local = 2.56896e-12, global = 1.97071e-12, cumulative = -1.35123e-07
DICPCG:  Solving for p_rgh, Initial residual = 5.97471e-08, Final residual = 5.83642e-09, No Iterations 16
diagonal:  Solving for rho, Initial residual = 0, Final residual = 0, No Iterations 0
time step continuity errors : sum local = 3.22133e-13, global = 1.54839e-14, cumulative = -1.35123e-07
DILUPBiCGStab:  Solving for epsilon, Initial residual = 1.99533e-06, Final residual = 2.52561e-11, No Iterations 1
DILUPBiCGStab:  Solving for k, Initial residual = 3.35405e-06, Final residual = 3.84085e-11, No Iterations 1
ExecutionTime = 2.24 s  ClockTime = 2 s

Courant Number mean: 0.00518812 max: 0.0227108
Time = 720

diagonal:  Solving for rho, Initial residual = 0, Final residual = 0, No Iterations 0
DILUPBiCGStab:  Solving for Ux, Initial residual = 2.40107e-06, Final residual = 1.2177e-11, No Iterations 1
DILUPBiCGStab:  Solving for Uy, Initial residual = 2.03e-06, Final residual = 1.32149e-11, No Iterations 1
DILUPBiCGStab:  Solving for h, Initial residual = 1.3745e-05, Final residual = 6.89022e-11, No Iterations 1
DICPCG:  Solving for p_rgh, Initial residual = 4.15312e-06, Final residual = 2.78681e-08, No Iterations 15
diagonal:  Solving for rho, Initial residual = 0, Final residual = 0, No Iterations 0
time step continuity errors : sum local = 2.56964e-12, global = 1.96806e-12, cumulative = -1.35121e-07
DICPCG:  Solving for p_rgh, Initial residual = 5.9795e-08, Final residual = 5.84114e-09, No Iterations 16
diagonal:  Solving for rho, Initial residual = 0, Final residual = 0, No Iterations 0
time step continuity errors : sum local = 3.20854e-13, global = 1.04025e-14, cumulative = -1.35121e-07
DILUPBiCGStab:  Solving for epsilon, Initial residual = 1.99612e-06, Final residual = 2.52706e-11, No Iterations 1
DILUPBiCGStab:  Solving for k, Initial residual = 3.35498e-06, Final residual = 3.84216e-11, No Iterations 1
ExecutionTime = 2.25 s  ClockTime = 2 s

End

