/*---------------------------------------------------------------------------*\
  =========                 |
  \\      /  F ield         | OpenFOAM: The Open Source CFD Toolbox
   \\    /   O peration     | Website:  https://openfoam.org
    \\  /    A nd           | Version:  6
     \\/     M anipulation  |
\*---------------------------------------------------------------------------*/
Build  : 6-e29811f5dff8
Exec   : buoyantPimpleFoam -case /home/mamitsu/OpenFOAM/mamitsu-6/run/aircond5/play/case2
Date   : Nov 23 2020
Time   : 01:33:17
Host   : "mamitsu-desktop"
PID    : 25958
I/O    : uncollated
Case   : /home/mamitsu/OpenFOAM/mamitsu-6/run/aircond5/play/case2
nProcs : 1
sigFpe : Enabling floating point exception trapping (FOAM_SIGFPE).
fileModificationChecking : Monitoring run-time modified files using timeStampMaster (fileModificationSkew 10)
allowSystemOperations : Allowing user-supplied system call operations

// * * * * * * * * * * * * * * * * * * * * * * * * * * * * * * * * * * * * * //
Create time

Create mesh for time = 710


PIMPLE: No convergence criteria found


PIMPLE: Operating solver in PISO mode

Reading thermophysical properties

Selecting thermodynamics package
{
    type            heRhoThermo;
    mixture         pureMixture;
    transport       const;
    thermo          hConst;
    equationOfState perfectGas;
    specie          specie;
    energy          sensibleEnthalpy;
}

Reading field U

Reading/calculating face flux field phi

Creating turbulence model

Selecting turbulence model type RAS
Selecting RAS turbulence model kEpsilon
RAS
{
    RASModel        kEpsilon;
    turbulence      on;
    printCoeffs     on;
    Cmu             0.09;
    C1              1.44;
    C2              1.92;
    C3              0;
    sigmak          1;
    sigmaEps        1.3;
}


Reading g

Reading hRef
Calculating field g.h

Reading field p_rgh

Creating field dpdt

Creating field kinetic energy K

No MRF models present

Radiation model not active: radiationProperties not found
Selecting radiationModel none
No finite volume options present
Courant Number mean: 0.00272699 max: 0.0147867

Starting time loop

Courant Number mean: 0.00272699 max: 0.0147867
Time = 710.01

diagonal:  Solving for rho, Initial residual = 0, Final residual = 0, No Iterations 0
DILUPBiCGStab:  Solving for Ux, Initial residual = 0.000496245, Final residual = 1.65988e-09, No Iterations 1
DILUPBiCGStab:  Solving for Uy, Initial residual = 0.0973364, Final residual = 2.68116e-07, No Iterations 1
DILUPBiCGStab:  Solving for h, Initial residual = 5.93143e-05, Final residual = 1.59989e-10, No Iterations 1
DICPCG:  Solving for p_rgh, Initial residual = 0.989117, Final residual = 0.00819956, No Iterations 3
diagonal:  Solving for rho, Initial residual = 0, Final residual = 0, No Iterations 0
time step continuity errors : sum local = 9.63009e-06, global = -1.80412e-07, cumulative = -1.80412e-07
DICPCG:  Solving for p_rgh, Initial residual = 0.271998, Final residual = 7.79875e-09, No Iterations 40
diagonal:  Solving for rho, Initial residual = 0, Final residual = 0, No Iterations 0
time step continuity errors : sum local = 3.22347e-10, global = -3.78764e-11, cumulative = -1.80449e-07
DILUPBiCGStab:  Solving for epsilon, Initial residual = 5.6605e-06, Final residual = 3.122e-11, No Iterations 1
DILUPBiCGStab:  Solving for k, Initial residual = 8.92902e-06, Final residual = 5.15957e-11, No Iterations 1
ExecutionTime = 0.01 s  ClockTime = 0 s

Courant Number mean: 0.00272626 max: 0.0147782
Time = 710.02

diagonal:  Solving for rho, Initial residual = 0, Final residual = 0, No Iterations 0
DILUPBiCGStab:  Solving for Ux, Initial residual = 0.000171839, Final residual = 5.74887e-10, No Iterations 1
DILUPBiCGStab:  Solving for Uy, Initial residual = 0.000370699, Final residual = 1.28549e-09, No Iterations 1
DILUPBiCGStab:  Solving for h, Initial residual = 6.92041e-05, Final residual = 1.90428e-10, No Iterations 1
DICPCG:  Solving for p_rgh, Initial residual = 0.145985, Final residual = 0.00132196, No Iterations 18
diagonal:  Solving for rho, Initial residual = 0, Final residual = 0, No Iterations 0
time step continuity errors : sum local = 4.20572e-08, global = -1.48522e-10, cumulative = -1.80598e-07
DICPCG:  Solving for p_rgh, Initial residual = 0.00137812, Final residual = 7.33692e-09, No Iterations 34
diagonal:  Solving for rho, Initial residual = 0, Final residual = 0, No Iterations 0
time step continuity errors : sum local = 1.7317e-11, global = -1.7317e-11, cumulative = -1.80615e-07
DILUPBiCGStab:  Solving for epsilon, Initial residual = 5.972e-06, Final residual = 3.33663e-11, No Iterations 1
DILUPBiCGStab:  Solving for k, Initial residual = 9.08651e-06, Final residual = 5.174e-11, No Iterations 1
ExecutionTime = 0.01 s  ClockTime = 0 s

Courant Number mean: 0.00272696 max: 0.0147725
Time = 710.03

diagonal:  Solving for rho, Initial residual = 0, Final residual = 0, No Iterations 0
DILUPBiCGStab:  Solving for Ux, Initial residual = 0.0001895, Final residual = 4.89329e-10, No Iterations 1
DILUPBiCGStab:  Solving for Uy, Initial residual = 0.000403387, Final residual = 1.55591e-09, No Iterations 1
DILUPBiCGStab:  Solving for h, Initial residual = 8.68633e-05, Final residual = 2.30549e-10, No Iterations 1
DICPCG:  Solving for p_rgh, Initial residual = 0.0742288, Final residual = 0.000586119, No Iterations 16
diagonal:  Solving for rho, Initial residual = 0, Final residual = 0, No Iterations 0
time step continuity errors : sum local = 1.79224e-08, global = 1.23279e-10, cumulative = -1.80492e-07
DICPCG:  Solving for p_rgh, Initial residual = 0.00065678, Final residual = 6.93327e-09, No Iterations 32
diagonal:  Solving for rho, Initial residual = 0, Final residual = 0, No Iterations 0
time step continuity errors : sum local = 1.87414e-11, global = -1.87414e-11, cumulative = -1.80511e-07
DILUPBiCGStab:  Solving for epsilon, Initial residual = 6.02926e-06, Final residual = 3.40057e-11, No Iterations 1
DILUPBiCGStab:  Solving for k, Initial residual = 9.15643e-06, Final residual = 5.23163e-11, No Iterations 1
ExecutionTime = 0.01 s  ClockTime = 0 s

Courant Number mean: 0.00272694 max: 0.0147701
Time = 710.04

diagonal:  Solving for rho, Initial residual = 0, Final residual = 0, No Iterations 0
DILUPBiCGStab:  Solving for Ux, Initial residual = 0.000126804, Final residual = 2.9412e-10, No Iterations 1
DILUPBiCGStab:  Solving for Uy, Initial residual = 6.82281e-05, Final residual = 2.71245e-10, No Iterations 1
DILUPBiCGStab:  Solving for h, Initial residual = 9.81263e-05, Final residual = 2.40871e-10, No Iterations 1
DICPCG:  Solving for p_rgh, Initial residual = 0.00639034, Final residual = 5.33695e-05, No Iterations 19
diagonal:  Solving for rho, Initial residual = 0, Final residual = 0, No Iterations 0
time step continuity errors : sum local = 1.55398e-09, global = 2.80702e-12, cumulative = -1.80508e-07
DICPCG:  Solving for p_rgh, Initial residual = 6.37247e-05, Final residual = 7.17031e-09, No Iterations 29
diagonal:  Solving for rho, Initial residual = 0, Final residual = 0, No Iterations 0
time step continuity errors : sum local = 2.10188e-11, global = -2.10188e-11, cumulative = -1.80529e-07
DILUPBiCGStab:  Solving for epsilon, Initial residual = 6.01242e-06, Final residual = 3.38583e-11, No Iterations 1
DILUPBiCGStab:  Solving for k, Initial residual = 9.14433e-06, Final residual = 5.21629e-11, No Iterations 1
ExecutionTime = 0.01 s  ClockTime = 0 s

Courant Number mean: 0.00272685 max: 0.0147704
Time = 710.05

diagonal:  Solving for rho, Initial residual = 0, Final residual = 0, No Iterations 0
DILUPBiCGStab:  Solving for Ux, Initial residual = 3.09171e-05, Final residual = 9.57249e-11, No Iterations 1
DILUPBiCGStab:  Solving for Uy, Initial residual = 3.04776e-05, Final residual = 8.69671e-11, No Iterations 1
DILUPBiCGStab:  Solving for h, Initial residual = 0.000101045, Final residual = 2.4598e-10, No Iterations 1
DICPCG:  Solving for p_rgh, Initial residual = 0.00588761, Final residual = 5.24335e-05, No Iterations 20
diagonal:  Solving for rho, Initial residual = 0, Final residual = 0, No Iterations 0
time step continuity errors : sum local = 1.49741e-09, global = -9.769e-12, cumulative = -1.80539e-07
DICPCG:  Solving for p_rgh, Initial residual = 6.086e-05, Final residual = 7.12466e-09, No Iterations 29
diagonal:  Solving for rho, Initial residual = 0, Final residual = 0, No Iterations 0
time step continuity errors : sum local = 1.9563e-11, global = -1.9563e-11, cumulative = -1.80558e-07
DILUPBiCGStab:  Solving for epsilon, Initial residual = 5.96695e-06, Final residual = 3.31041e-11, No Iterations 1
DILUPBiCGStab:  Solving for k, Initial residual = 9.08202e-06, Final residual = 5.16429e-11, No Iterations 1
ExecutionTime = 0.02 s  ClockTime = 0 s

Courant Number mean: 0.00272681 max: 0.0147728
Time = 710.06

diagonal:  Solving for rho, Initial residual = 0, Final residual = 0, No Iterations 0
DILUPBiCGStab:  Solving for Ux, Initial residual = 8.06736e-05, Final residual = 2.5738e-10, No Iterations 1
DILUPBiCGStab:  Solving for Uy, Initial residual = 2.81911e-05, Final residual = 1.65324e-10, No Iterations 1
DILUPBiCGStab:  Solving for h, Initial residual = 9.70807e-05, Final residual = 2.3788e-10, No Iterations 1
DICPCG:  Solving for p_rgh, Initial residual = 0.00472458, Final residual = 2.9403e-05, No Iterations 21
diagonal:  Solving for rho, Initial residual = 0, Final residual = 0, No Iterations 0
time step continuity errors : sum local = 8.25811e-10, global = 1.33939e-11, cumulative = -1.80545e-07
DICPCG:  Solving for p_rgh, Initial residual = 3.25424e-05, Final residual = 9.65929e-09, No Iterations 29
diagonal:  Solving for rho, Initial residual = 0, Final residual = 0, No Iterations 0
time step continuity errors : sum local = 1.47569e-11, global = -1.47563e-11, cumulative = -1.8056e-07
DILUPBiCGStab:  Solving for epsilon, Initial residual = 5.89479e-06, Final residual = 3.18672e-11, No Iterations 1
DILUPBiCGStab:  Solving for k, Initial residual = 8.97898e-06, Final residual = 5.08126e-11, No Iterations 1
ExecutionTime = 0.02 s  ClockTime = 0 s

Courant Number mean: 0.00272677 max: 0.0147769
Time = 710.07

diagonal:  Solving for rho, Initial residual = 0, Final residual = 0, No Iterations 0
DILUPBiCGStab:  Solving for Ux, Initial residual = 0.000144288, Final residual = 4.28692e-10, No Iterations 1
DILUPBiCGStab:  Solving for Uy, Initial residual = 4.0252e-05, Final residual = 2.56781e-10, No Iterations 1
DILUPBiCGStab:  Solving for h, Initial residual = 8.78617e-05, Final residual = 2.19215e-10, No Iterations 1
DICPCG:  Solving for p_rgh, Initial residual = 0.00282901, Final residual = 1.58364e-05, No Iterations 20
diagonal:  Solving for rho, Initial residual = 0, Final residual = 0, No Iterations 0
time step continuity errors : sum local = 4.44982e-10, global = 1.32678e-11, cumulative = -1.80546e-07
DICPCG:  Solving for p_rgh, Initial residual = 1.86628e-05, Final residual = 6.83922e-09, No Iterations 28
diagonal:  Solving for rho, Initial residual = 0, Final residual = 0, No Iterations 0
time step continuity errors : sum local = 8.13016e-12, global = -8.12917e-12, cumulative = -1.80555e-07
DILUPBiCGStab:  Solving for epsilon, Initial residual = 5.8062e-06, Final residual = 3.03418e-11, No Iterations 1
DILUPBiCGStab:  Solving for k, Initial residual = 8.86446e-06, Final residual = 4.9903e-11, No Iterations 1
ExecutionTime = 0.02 s  ClockTime = 0 s

Courant Number mean: 0.00272673 max: 0.0147821
Time = 710.08

diagonal:  Solving for rho, Initial residual = 0, Final residual = 0, No Iterations 0
DILUPBiCGStab:  Solving for Ux, Initial residual = 0.000166115, Final residual = 4.96136e-10, No Iterations 1
DILUPBiCGStab:  Solving for Uy, Initial residual = 5.13225e-05, Final residual = 3.20604e-10, No Iterations 1
DILUPBiCGStab:  Solving for h, Initial residual = 7.52428e-05, Final residual = 1.93168e-10, No Iterations 1
DICPCG:  Solving for p_rgh, Initial residual = 0.000729274, Final residual = 4.0767e-06, No Iterations 23
diagonal:  Solving for rho, Initial residual = 0, Final residual = 0, No Iterations 0
time step continuity errors : sum local = 1.14711e-10, global = 1.22311e-11, cumulative = -1.80542e-07
DICPCG:  Solving for p_rgh, Initial residual = 5.29146e-06, Final residual = 9.13488e-09, No Iterations 24
diagonal:  Solving for rho, Initial residual = 0, Final residual = 0, No Iterations 0
time step continuity errors : sum local = 1.03879e-12, global = -1.00916e-12, cumulative = -1.80543e-07
DILUPBiCGStab:  Solving for epsilon, Initial residual = 5.71678e-06, Final residual = 2.87945e-11, No Iterations 1
DILUPBiCGStab:  Solving for k, Initial residual = 8.76595e-06, Final residual = 4.89244e-11, No Iterations 1
ExecutionTime = 0.02 s  ClockTime = 0 s

Courant Number mean: 0.00272667 max: 0.0147872
Time = 710.09

diagonal:  Solving for rho, Initial residual = 0, Final residual = 0, No Iterations 0
DILUPBiCGStab:  Solving for Ux, Initial residual = 0.000157829, Final residual = 4.80552e-10, No Iterations 1
DILUPBiCGStab:  Solving for Uy, Initial residual = 5.29546e-05, Final residual = 3.2435e-10, No Iterations 1
DILUPBiCGStab:  Solving for h, Initial residual = 6.14954e-05, Final residual = 1.6384e-10, No Iterations 1
DICPCG:  Solving for p_rgh, Initial residual = 0.00181631, Final residual = 1.70807e-05, No Iterations 19
diagonal:  Solving for rho, Initial residual = 0, Final residual = 0, No Iterations 0
time step continuity errors : sum local = 4.84014e-10, global = 1.48029e-11, cumulative = -1.80529e-07
DICPCG:  Solving for p_rgh, Initial residual = 1.99622e-05, Final residual = 3.01843e-09, No Iterations 28
diagonal:  Solving for rho, Initial residual = 0, Final residual = 0, No Iterations 0
time step continuity errors : sum local = 5.44806e-12, global = 5.44526e-12, cumulative = -1.80523e-07
DILUPBiCGStab:  Solving for epsilon, Initial residual = 5.64164e-06, Final residual = 2.74908e-11, No Iterations 1
DILUPBiCGStab:  Solving for k, Initial residual = 8.68267e-06, Final residual = 4.82046e-11, No Iterations 1
ExecutionTime = 0.03 s  ClockTime = 0 s

Courant Number mean: 0.00272661 max: 0.0147916
Time = 710.1

diagonal:  Solving for rho, Initial residual = 0, Final residual = 0, No Iterations 0
DILUPBiCGStab:  Solving for Ux, Initial residual = 0.000130535, Final residual = 4.04975e-10, No Iterations 1
DILUPBiCGStab:  Solving for Uy, Initial residual = 4.58159e-05, Final residual = 2.73754e-10, No Iterations 1
DILUPBiCGStab:  Solving for h, Initial residual = 4.90595e-05, Final residual = 1.37035e-10, No Iterations 1
DICPCG:  Solving for p_rgh, Initial residual = 0.00302813, Final residual = 1.84903e-05, No Iterations 20
diagonal:  Solving for rho, Initial residual = 0, Final residual = 0, No Iterations 0
time step continuity errors : sum local = 5.24263e-10, global = 1.28389e-11, cumulative = -1.8051e-07
DICPCG:  Solving for p_rgh, Initial residual = 2.3205e-05, Final residual = 5.01916e-09, No Iterations 29
diagonal:  Solving for rho, Initial residual = 0, Final residual = 0, No Iterations 0
time step continuity errors : sum local = 1.02877e-11, global = 1.02877e-11, cumulative = -1.805e-07
DILUPBiCGStab:  Solving for epsilon, Initial residual = 5.6151e-06, Final residual = 2.70898e-11, No Iterations 1
DILUPBiCGStab:  Solving for k, Initial residual = 8.6299e-06, Final residual = 4.82468e-11, No Iterations 1
ExecutionTime = 0.03 s  ClockTime = 0 s

Courant Number mean: 0.00272656 max: 0.0147944
Time = 710.11

diagonal:  Solving for rho, Initial residual = 0, Final residual = 0, No Iterations 0
DILUPBiCGStab:  Solving for Ux, Initial residual = 8.99302e-05, Final residual = 2.87173e-10, No Iterations 1
DILUPBiCGStab:  Solving for Uy, Initial residual = 3.29769e-05, Final residual = 1.87445e-10, No Iterations 1
DILUPBiCGStab:  Solving for h, Initial residual = 3.99576e-05, Final residual = 1.17778e-10, No Iterations 1
DICPCG:  Solving for p_rgh, Initial residual = 0.00394921, Final residual = 2.79484e-05, No Iterations 20
diagonal:  Solving for rho, Initial residual = 0, Final residual = 0, No Iterations 0
time step continuity errors : sum local = 7.83534e-10, global = 2.19366e-11, cumulative = -1.80478e-07
DICPCG:  Solving for p_rgh, Initial residual = 3.29116e-05, Final residual = 8.87694e-09, No Iterations 29
diagonal:  Solving for rho, Initial residual = 0, Final residual = 0, No Iterations 0
time step continuity errors : sum local = 1.29686e-11, global = 1.29686e-11, cumulative = -1.80465e-07
DILUPBiCGStab:  Solving for epsilon, Initial residual = 5.60708e-06, Final residual = 2.69472e-11, No Iterations 1
DILUPBiCGStab:  Solving for k, Initial residual = 8.62114e-06, Final residual = 4.82659e-11, No Iterations 1
ExecutionTime = 0.03 s  ClockTime = 0 s

Courant Number mean: 0.00272651 max: 0.0147955
Time = 710.12

diagonal:  Solving for rho, Initial residual = 0, Final residual = 0, No Iterations 0
DILUPBiCGStab:  Solving for Ux, Initial residual = 4.27028e-05, Final residual = 1.49278e-10, No Iterations 1
DILUPBiCGStab:  Solving for Uy, Initial residual = 1.93315e-05, Final residual = 8.90349e-11, No Iterations 1
DILUPBiCGStab:  Solving for h, Initial residual = 3.52012e-05, Final residual = 1.08112e-10, No Iterations 1
DICPCG:  Solving for p_rgh, Initial residual = 0.00412879, Final residual = 3.41924e-05, No Iterations 20
diagonal:  Solving for rho, Initial residual = 0, Final residual = 0, No Iterations 0
time step continuity errors : sum local = 9.66756e-10, global = 2.20715e-11, cumulative = -1.80443e-07
DICPCG:  Solving for p_rgh, Initial residual = 3.86193e-05, Final residual = 6.21492e-09, No Iterations 29
diagonal:  Solving for rho, Initial residual = 0, Final residual = 0, No Iterations 0
time step continuity errors : sum local = 1.32994e-11, global = 1.32994e-11, cumulative = -1.8043e-07
DILUPBiCGStab:  Solving for epsilon, Initial residual = 5.60634e-06, Final residual = 2.69377e-11, No Iterations 1
DILUPBiCGStab:  Solving for k, Initial residual = 8.62121e-06, Final residual = 4.82199e-11, No Iterations 1
ExecutionTime = 0.03 s  ClockTime = 0 s

Courant Number mean: 0.00272647 max: 0.0147948
Time = 710.13

diagonal:  Solving for rho, Initial residual = 0, Final residual = 0, No Iterations 0
DILUPBiCGStab:  Solving for Ux, Initial residual = 1.82423e-05, Final residual = 6.21258e-11, No Iterations 1
DILUPBiCGStab:  Solving for Uy, Initial residual = 1.70918e-05, Final residual = 7.63166e-11, No Iterations 1
DILUPBiCGStab:  Solving for h, Initial residual = 3.46035e-05, Final residual = 1.06804e-10, No Iterations 1
DICPCG:  Solving for p_rgh, Initial residual = 0.0036369, Final residual = 3.35335e-05, No Iterations 20
diagonal:  Solving for rho, Initial residual = 0, Final residual = 0, No Iterations 0
time step continuity errors : sum local = 9.59739e-10, global = 2.0567e-11, cumulative = -1.80409e-07
DICPCG:  Solving for p_rgh, Initial residual = 3.69792e-05, Final residual = 7.40829e-09, No Iterations 28
diagonal:  Solving for rho, Initial residual = 0, Final residual = 0, No Iterations 0
time step continuity errors : sum local = 1.15492e-11, global = 1.15468e-11, cumulative = -1.80398e-07
DILUPBiCGStab:  Solving for epsilon, Initial residual = 5.61204e-06, Final residual = 2.70451e-11, No Iterations 1
DILUPBiCGStab:  Solving for k, Initial residual = 8.64547e-06, Final residual = 4.81561e-11, No Iterations 1
ExecutionTime = 0.04 s  ClockTime = 0 s

Courant Number mean: 0.00272643 max: 0.0147928
Time = 710.14

diagonal:  Solving for rho, Initial residual = 0, Final residual = 0, No Iterations 0
DILUPBiCGStab:  Solving for Ux, Initial residual = 5.69804e-05, Final residual = 1.44444e-10, No Iterations 1
DILUPBiCGStab:  Solving for Uy, Initial residual = 2.69122e-05, Final residual = 1.70126e-10, No Iterations 1
DILUPBiCGStab:  Solving for h, Initial residual = 3.76957e-05, Final residual = 1.12833e-10, No Iterations 1
DICPCG:  Solving for p_rgh, Initial residual = 0.00266173, Final residual = 2.6079e-05, No Iterations 17
diagonal:  Solving for rho, Initial residual = 0, Final residual = 0, No Iterations 0
time step continuity errors : sum local = 7.54845e-10, global = 4.25254e-11, cumulative = -1.80355e-07
DICPCG:  Solving for p_rgh, Initial residual = 2.80454e-05, Final residual = 4.92748e-09, No Iterations 29
diagonal:  Solving for rho, Initial residual = 0, Final residual = 0, No Iterations 0
time step continuity errors : sum local = 8.21736e-12, global = 8.21626e-12, cumulative = -1.80347e-07
DILUPBiCGStab:  Solving for epsilon, Initial residual = 5.66075e-06, Final residual = 2.78257e-11, No Iterations 1
DILUPBiCGStab:  Solving for k, Initial residual = 8.69844e-06, Final residual = 4.83244e-11, No Iterations 1
ExecutionTime = 0.04 s  ClockTime = 0 s

Courant Number mean: 0.00272639 max: 0.0147897
Time = 710.15

diagonal:  Solving for rho, Initial residual = 0, Final residual = 0, No Iterations 0
DILUPBiCGStab:  Solving for Ux, Initial residual = 8.69415e-05, Final residual = 2.28535e-10, No Iterations 1
DILUPBiCGStab:  Solving for Uy, Initial residual = 3.60552e-05, Final residual = 2.26264e-10, No Iterations 1
DILUPBiCGStab:  Solving for h, Initial residual = 4.38174e-05, Final residual = 1.25349e-10, No Iterations 1
DICPCG:  Solving for p_rgh, Initial residual = 0.00142057, Final residual = 1.37053e-05, No Iterations 20
diagonal:  Solving for rho, Initial residual = 0, Final residual = 0, No Iterations 0
time step continuity errors : sum local = 3.9999e-10, global = 4.42282e-12, cumulative = -1.80342e-07
DICPCG:  Solving for p_rgh, Initial residual = 1.51365e-05, Final residual = 6.20356e-09, No Iterations 28
diagonal:  Solving for rho, Initial residual = 0, Final residual = 0, No Iterations 0
time step continuity errors : sum local = 4.02514e-12, global = 4.02155e-12, cumulative = -1.80338e-07
DILUPBiCGStab:  Solving for epsilon, Initial residual = 5.71639e-06, Final residual = 2.87909e-11, No Iterations 1
DILUPBiCGStab:  Solving for k, Initial residual = 8.7593e-06, Final residual = 4.88745e-11, No Iterations 1
ExecutionTime = 0.04 s  ClockTime = 0 s

Courant Number mean: 0.00272635 max: 0.0147863
Time = 710.16

diagonal:  Solving for rho, Initial residual = 0, Final residual = 0, No Iterations 0
DILUPBiCGStab:  Solving for Ux, Initial residual = 9.99294e-05, Final residual = 2.65678e-10, No Iterations 1
DILUPBiCGStab:  Solving for Uy, Initial residual = 4.07198e-05, Final residual = 2.47646e-10, No Iterations 1
DILUPBiCGStab:  Solving for h, Initial residual = 5.17949e-05, Final residual = 1.41723e-10, No Iterations 1
DICPCG:  Solving for p_rgh, Initial residual = 0.000355962, Final residual = 3.04449e-06, No Iterations 22
diagonal:  Solving for rho, Initial residual = 0, Final residual = 0, No Iterations 0
time step continuity errors : sum local = 9.02808e-11, global = 8.97895e-12, cumulative = -1.80329e-07
DICPCG:  Solving for p_rgh, Initial residual = 3.79311e-06, Final residual = 8.45726e-09, No Iterations 23
diagonal:  Solving for rho, Initial residual = 0, Final residual = 0, No Iterations 0
time step continuity errors : sum local = 4.82436e-13, global = -3.10999e-13, cumulative = -1.8033e-07
DILUPBiCGStab:  Solving for epsilon, Initial residual = 5.76951e-06, Final residual = 2.97118e-11, No Iterations 1
DILUPBiCGStab:  Solving for k, Initial residual = 8.81774e-06, Final residual = 4.94833e-11, No Iterations 1
ExecutionTime = 0.04 s  ClockTime = 0 s

Courant Number mean: 0.00272632 max: 0.0147829
Time = 710.17

diagonal:  Solving for rho, Initial residual = 0, Final residual = 0, No Iterations 0
DILUPBiCGStab:  Solving for Ux, Initial residual = 9.58373e-05, Final residual = 2.54495e-10, No Iterations 1
DILUPBiCGStab:  Solving for Uy, Initial residual = 4.01317e-05, Final residual = 2.36321e-10, No Iterations 1
DILUPBiCGStab:  Solving for h, Initial residual = 6.00946e-05, Final residual = 1.5923e-10, No Iterations 1
DICPCG:  Solving for p_rgh, Initial residual = 0.00126251, Final residual = 8.36605e-06, No Iterations 20
diagonal:  Solving for rho, Initial residual = 0, Final residual = 0, No Iterations 0
time step continuity errors : sum local = 2.45216e-10, global = 9.9659e-12, cumulative = -1.8032e-07
DICPCG:  Solving for p_rgh, Initial residual = 1.03034e-05, Final residual = 9.98023e-09, No Iterations 26
diagonal:  Solving for rho, Initial residual = 0, Final residual = 0, No Iterations 0
time step continuity errors : sum local = 4.09697e-12, global = -4.08588e-12, cumulative = -1.80324e-07
DILUPBiCGStab:  Solving for epsilon, Initial residual = 5.81219e-06, Final residual = 3.04508e-11, No Iterations 1
DILUPBiCGStab:  Solving for k, Initial residual = 8.86498e-06, Final residual = 4.99334e-11, No Iterations 1
ExecutionTime = 0.04 s  ClockTime = 0 s

Courant Number mean: 0.00272628 max: 0.0147803
Time = 710.18

diagonal:  Solving for rho, Initial residual = 0, Final residual = 0, No Iterations 0
DILUPBiCGStab:  Solving for Ux, Initial residual = 7.7626e-05, Final residual = 2.03035e-10, No Iterations 1
DILUPBiCGStab:  Solving for Uy, Initial residual = 3.50561e-05, Final residual = 1.97864e-10, No Iterations 1
DILUPBiCGStab:  Solving for h, Initial residual = 6.73714e-05, Final residual = 1.74857e-10, No Iterations 1
DICPCG:  Solving for p_rgh, Initial residual = 0.0019377, Final residual = 1.32819e-05, No Iterations 20
diagonal:  Solving for rho, Initial residual = 0, Final residual = 0, No Iterations 0
time step continuity errors : sum local = 3.84991e-10, global = 6.13253e-12, cumulative = -1.80318e-07
DICPCG:  Solving for p_rgh, Initial residual = 1.61602e-05, Final residual = 8.42528e-09, No Iterations 28
diagonal:  Solving for rho, Initial residual = 0, Final residual = 0, No Iterations 0
time step continuity errors : sum local = 6.7753e-12, global = -6.7704e-12, cumulative = -1.80324e-07
DILUPBiCGStab:  Solving for epsilon, Initial residual = 5.83903e-06, Final residual = 3.09155e-11, No Iterations 1
DILUPBiCGStab:  Solving for k, Initial residual = 8.895e-06, Final residual = 5.01993e-11, No Iterations 1
ExecutionTime = 0.05 s  ClockTime = 0 s

Courant Number mean: 0.00272624 max: 0.0147785
Time = 710.19

diagonal:  Solving for rho, Initial residual = 0, Final residual = 0, No Iterations 0
DILUPBiCGStab:  Solving for Ux, Initial residual = 5.0476e-05, Final residual = 1.28427e-10, No Iterations 1
DILUPBiCGStab:  Solving for Uy, Initial residual = 2.72712e-05, Final residual = 1.41891e-10, No Iterations 1
DILUPBiCGStab:  Solving for h, Initial residual = 7.25721e-05, Final residual = 1.86094e-10, No Iterations 1
DICPCG:  Solving for p_rgh, Initial residual = 0.00240283, Final residual = 1.89571e-05, No Iterations 20
diagonal:  Solving for rho, Initial residual = 0, Final residual = 0, No Iterations 0
time step continuity errors : sum local = 5.46386e-10, global = 3.67515e-12, cumulative = -1.80321e-07
DICPCG:  Solving for p_rgh, Initial residual = 2.22248e-05, Final residual = 5.82128e-09, No Iterations 29
diagonal:  Solving for rho, Initial residual = 0, Final residual = 0, No Iterations 0
time step continuity errors : sum local = 8.09504e-12, global = -8.09504e-12, cumulative = -1.80329e-07
DILUPBiCGStab:  Solving for epsilon, Initial residual = 5.84774e-06, Final residual = 3.10672e-11, No Iterations 1
DILUPBiCGStab:  Solving for k, Initial residual = 8.90517e-06, Final residual = 5.02934e-11, No Iterations 1
ExecutionTime = 0.05 s  ClockTime = 0 s

Courant Number mean: 0.00272621 max: 0.0147778
Time = 710.2

diagonal:  Solving for rho, Initial residual = 0, Final residual = 0, No Iterations 0
DILUPBiCGStab:  Solving for Ux, Initial residual = 2.22262e-05, Final residual = 6.80117e-11, No Iterations 1
DILUPBiCGStab:  Solving for Uy, Initial residual = 1.85238e-05, Final residual = 8.33394e-11, No Iterations 1
DILUPBiCGStab:  Solving for h, Initial residual = 7.51331e-05, Final residual = 1.91694e-10, No Iterations 1
DICPCG:  Solving for p_rgh, Initial residual = 0.00246436, Final residual = 2.13466e-05, No Iterations 20
diagonal:  Solving for rho, Initial residual = 0, Final residual = 0, No Iterations 0
time step continuity errors : sum local = 6.11329e-10, global = 3.03063e-12, cumulative = -1.80326e-07
DICPCG:  Solving for p_rgh, Initial residual = 2.44574e-05, Final residual = 5.52235e-09, No Iterations 28
diagonal:  Solving for rho, Initial residual = 0, Final residual = 0, No Iterations 0
time step continuity errors : sum local = 8.015e-12, global = -8.015e-12, cumulative = -1.80334e-07
DILUPBiCGStab:  Solving for epsilon, Initial residual = 5.83913e-06, Final residual = 3.09201e-11, No Iterations 1
DILUPBiCGStab:  Solving for k, Initial residual = 8.89624e-06, Final residual = 5.0207e-11, No Iterations 1
ExecutionTime = 0.05 s  ClockTime = 0 s

Courant Number mean: 0.00272616 max: 0.0147782
Time = 710.21

diagonal:  Solving for rho, Initial residual = 0, Final residual = 0, No Iterations 0
DILUPBiCGStab:  Solving for Ux, Initial residual = 2.1987e-05, Final residual = 9.96443e-11, No Iterations 1
DILUPBiCGStab:  Solving for Uy, Initial residual = 1.38404e-05, Final residual = 5.57874e-11, No Iterations 1
DILUPBiCGStab:  Solving for h, Initial residual = 7.4971e-05, Final residual = 1.91386e-10, No Iterations 1
DICPCG:  Solving for p_rgh, Initial residual = 0.00213724, Final residual = 1.93706e-05, No Iterations 18
diagonal:  Solving for rho, Initial residual = 0, Final residual = 0, No Iterations 0
time step continuity errors : sum local = 5.5064e-10, global = -1.37504e-11, cumulative = -1.80348e-07
DICPCG:  Solving for p_rgh, Initial residual = 2.04143e-05, Final residual = 8.61077e-09, No Iterations 28
diagonal:  Solving for rho, Initial residual = 0, Final residual = 0, No Iterations 0
time step continuity errors : sum local = 6.7001e-12, global = -6.69723e-12, cumulative = -1.80354e-07
DILUPBiCGStab:  Solving for epsilon, Initial residual = 5.81658e-06, Final residual = 3.05328e-11, No Iterations 1
DILUPBiCGStab:  Solving for k, Initial residual = 8.87186e-06, Final residual = 4.99913e-11, No Iterations 1
ExecutionTime = 0.05 s  ClockTime = 0 s

Courant Number mean: 0.00272612 max: 0.0147793
Time = 710.22

diagonal:  Solving for rho, Initial residual = 0, Final residual = 0, No Iterations 0
DILUPBiCGStab:  Solving for Ux, Initial residual = 4.21218e-05, Final residual = 1.51341e-10, No Iterations 1
DILUPBiCGStab:  Solving for Uy, Initial residual = 1.65216e-05, Final residual = 8.82568e-11, No Iterations 1
DILUPBiCGStab:  Solving for h, Initial residual = 7.24343e-05, Final residual = 1.85911e-10, No Iterations 1
DICPCG:  Solving for p_rgh, Initial residual = 0.00151193, Final residual = 1.02962e-05, No Iterations 16
diagonal:  Solving for rho, Initial residual = 0, Final residual = 0, No Iterations 0
time step continuity errors : sum local = 2.93025e-10, global = 1.17709e-11, cumulative = -1.80343e-07
DICPCG:  Solving for p_rgh, Initial residual = 1.1671e-05, Final residual = 6.06984e-09, No Iterations 26
diagonal:  Solving for rho, Initial residual = 0, Final residual = 0, No Iterations 0
time step continuity errors : sum local = 4.50987e-12, global = -4.5027e-12, cumulative = -1.80347e-07
DILUPBiCGStab:  Solving for epsilon, Initial residual = 5.78524e-06, Final residual = 2.99934e-11, No Iterations 1
DILUPBiCGStab:  Solving for k, Initial residual = 8.83762e-06, Final residual = 4.96737e-11, No Iterations 1
ExecutionTime = 0.06 s  ClockTime = 0 s

Courant Number mean: 0.00272607 max: 0.0147811
Time = 710.23

diagonal:  Solving for rho, Initial residual = 0, Final residual = 0, No Iterations 0
DILUPBiCGStab:  Solving for Ux, Initial residual = 5.68292e-05, Final residual = 1.91653e-10, No Iterations 1
DILUPBiCGStab:  Solving for Uy, Initial residual = 2.07438e-05, Final residual = 1.17666e-10, No Iterations 1
DILUPBiCGStab:  Solving for h, Initial residual = 6.8197e-05, Final residual = 1.76795e-10, No Iterations 1
DICPCG:  Solving for p_rgh, Initial residual = 0.000720793, Final residual = 6.19597e-06, No Iterations 21
diagonal:  Solving for rho, Initial residual = 0, Final residual = 0, No Iterations 0
time step continuity errors : sum local = 1.73222e-10, global = 1.23241e-11, cumulative = -1.80335e-07
DICPCG:  Solving for p_rgh, Initial residual = 6.59438e-06, Final residual = 6.97643e-09, No Iterations 25
diagonal:  Solving for rho, Initial residual = 0, Final residual = 0, No Iterations 0
time step continuity errors : sum local = 1.89589e-12, global = -1.88153e-12, cumulative = -1.80337e-07
DILUPBiCGStab:  Solving for epsilon, Initial residual = 5.751e-06, Final residual = 2.94033e-11, No Iterations 1
DILUPBiCGStab:  Solving for k, Initial residual = 8.79995e-06, Final residual = 4.93029e-11, No Iterations 1
ExecutionTime = 0.06 s  ClockTime = 0 s

Courant Number mean: 0.00272603 max: 0.0147829
Time = 710.24

diagonal:  Solving for rho, Initial residual = 0, Final residual = 0, No Iterations 0
DILUPBiCGStab:  Solving for Ux, Initial residual = 6.21705e-05, Final residual = 2.06713e-10, No Iterations 1
DILUPBiCGStab:  Solving for Uy, Initial residual = 2.26258e-05, Final residual = 1.27504e-10, No Iterations 1
DILUPBiCGStab:  Solving for h, Initial residual = 6.31155e-05, Final residual = 1.65818e-10, No Iterations 1
DICPCG:  Solving for p_rgh, Initial residual = 0.000356866, Final residual = 3.51775e-06, No Iterations 21
diagonal:  Solving for rho, Initial residual = 0, Final residual = 0, No Iterations 0
time step continuity errors : sum local = 9.87966e-11, global = 1.03925e-11, cumulative = -1.80326e-07
DICPCG:  Solving for p_rgh, Initial residual = 4.17687e-06, Final residual = 9.65324e-09, No Iterations 25
diagonal:  Solving for rho, Initial residual = 0, Final residual = 0, No Iterations 0
time step continuity errors : sum local = 8.13039e-13, global = 7.2691e-13, cumulative = -1.80325e-07
DILUPBiCGStab:  Solving for epsilon, Initial residual = 5.71949e-06, Final residual = 2.88597e-11, No Iterations 1
DILUPBiCGStab:  Solving for k, Initial residual = 8.76507e-06, Final residual = 4.89393e-11, No Iterations 1
ExecutionTime = 0.06 s  ClockTime = 0 s

Courant Number mean: 0.00272598 max: 0.0147847
Time = 710.25

diagonal:  Solving for rho, Initial residual = 0, Final residual = 0, No Iterations 0
DILUPBiCGStab:  Solving for Ux, Initial residual = 5.79735e-05, Final residual = 1.94459e-10, No Iterations 1
DILUPBiCGStab:  Solving for Uy, Initial residual = 2.18177e-05, Final residual = 1.1863e-10, No Iterations 1
DILUPBiCGStab:  Solving for h, Initial residual = 5.80764e-05, Final residual = 1.54999e-10, No Iterations 1
DICPCG:  Solving for p_rgh, Initial residual = 0.000903714, Final residual = 5.75569e-06, No Iterations 20
diagonal:  Solving for rho, Initial residual = 0, Final residual = 0, No Iterations 0
time step continuity errors : sum local = 1.62647e-10, global = 1.03439e-11, cumulative = -1.80315e-07
DICPCG:  Solving for p_rgh, Initial residual = 7.00524e-06, Final residual = 9.96645e-09, No Iterations 25
diagonal:  Solving for rho, Initial residual = 0, Final residual = 0, No Iterations 0
time step continuity errors : sum local = 2.91268e-12, global = 2.89989e-12, cumulative = -1.80312e-07
DILUPBiCGStab:  Solving for epsilon, Initial residual = 5.69526e-06, Final residual = 2.84414e-11, No Iterations 1
DILUPBiCGStab:  Solving for k, Initial residual = 8.73803e-06, Final residual = 4.86447e-11, No Iterations 1
ExecutionTime = 0.06 s  ClockTime = 0 s

Courant Number mean: 0.00272593 max: 0.014786
Time = 710.26

diagonal:  Solving for rho, Initial residual = 0, Final residual = 0, No Iterations 0
DILUPBiCGStab:  Solving for Ux, Initial residual = 4.63387e-05, Final residual = 1.61327e-10, No Iterations 1
DILUPBiCGStab:  Solving for Uy, Initial residual = 1.89746e-05, Final residual = 9.55613e-11, No Iterations 1
DILUPBiCGStab:  Solving for h, Initial residual = 5.3872e-05, Final residual = 1.4597e-10, No Iterations 1
DICPCG:  Solving for p_rgh, Initial residual = 0.00129442, Final residual = 9.12615e-06, No Iterations 20
diagonal:  Solving for rho, Initial residual = 0, Final residual = 0, No Iterations 0
time step continuity errors : sum local = 2.58965e-10, global = 1.31169e-11, cumulative = -1.80299e-07
DICPCG:  Solving for p_rgh, Initial residual = 1.09472e-05, Final residual = 5.96895e-09, No Iterations 28
diagonal:  Solving for rho, Initial residual = 0, Final residual = 0, No Iterations 0
time step continuity errors : sum local = 4.38925e-12, global = 4.38335e-12, cumulative = -1.80295e-07
DILUPBiCGStab:  Solving for epsilon, Initial residual = 5.68118e-06, Final residual = 2.81988e-11, No Iterations 1
DILUPBiCGStab:  Solving for k, Initial residual = 8.72205e-06, Final residual = 4.84657e-11, No Iterations 1
ExecutionTime = 0.07 s  ClockTime = 0 s

Courant Number mean: 0.00272589 max: 0.0147867
Time = 710.27

diagonal:  Solving for rho, Initial residual = 0, Final residual = 0, No Iterations 0
DILUPBiCGStab:  Solving for Ux, Initial residual = 3.1043e-05, Final residual = 1.1968e-10, No Iterations 1
DILUPBiCGStab:  Solving for Uy, Initial residual = 1.57463e-05, Final residual = 6.85984e-11, No Iterations 1
DILUPBiCGStab:  Solving for h, Initial residual = 5.10485e-05, Final residual = 1.39884e-10, No Iterations 1
DICPCG:  Solving for p_rgh, Initial residual = 0.00152281, Final residual = 1.2001e-05, No Iterations 20
diagonal:  Solving for rho, Initial residual = 0, Final residual = 0, No Iterations 0
time step continuity errors : sum local = 3.41006e-10, global = 1.40764e-11, cumulative = -1.80281e-07
DICPCG:  Solving for p_rgh, Initial residual = 1.38882e-05, Final residual = 6.42904e-09, No Iterations 28
diagonal:  Solving for rho, Initial residual = 0, Final residual = 0, No Iterations 0
time step continuity errors : sum local = 5.01329e-12, global = 5.0119e-12, cumulative = -1.80276e-07
DILUPBiCGStab:  Solving for epsilon, Initial residual = 5.67824e-06, Final residual = 2.81485e-11, No Iterations 1
DILUPBiCGStab:  Solving for k, Initial residual = 8.71827e-06, Final residual = 4.84245e-11, No Iterations 1
ExecutionTime = 0.07 s  ClockTime = 0 s

Courant Number mean: 0.00272584 max: 0.0147867
Time = 710.28

diagonal:  Solving for rho, Initial residual = 0, Final residual = 0, No Iterations 0
DILUPBiCGStab:  Solving for Ux, Initial residual = 1.76998e-05, Final residual = 8.41677e-11, No Iterations 1
DILUPBiCGStab:  Solving for Uy, Initial residual = 1.38554e-05, Final residual = 5.16896e-11, No Iterations 1
DILUPBiCGStab:  Solving for h, Initial residual = 4.98599e-05, Final residual = 1.37267e-10, No Iterations 1
DICPCG:  Solving for p_rgh, Initial residual = 0.00148786, Final residual = 1.27918e-05, No Iterations 20
diagonal:  Solving for rho, Initial residual = 0, Final residual = 0, No Iterations 0
time step continuity errors : sum local = 3.64805e-10, global = 1.44697e-11, cumulative = -1.80261e-07
DICPCG:  Solving for p_rgh, Initial residual = 1.44165e-05, Final residual = 6.56232e-09, No Iterations 27
diagonal:  Solving for rho, Initial residual = 0, Final residual = 0, No Iterations 0
time step continuity errors : sum local = 4.78267e-12, global = 4.78241e-12, cumulative = -1.80256e-07
DILUPBiCGStab:  Solving for epsilon, Initial residual = 5.68555e-06, Final residual = 2.82757e-11, No Iterations 1
DILUPBiCGStab:  Solving for k, Initial residual = 8.72583e-06, Final residual = 4.85135e-11, No Iterations 1
ExecutionTime = 0.07 s  ClockTime = 0 s

Courant Number mean: 0.0027258 max: 0.0147861
Time = 710.29

diagonal:  Solving for rho, Initial residual = 0, Final residual = 0, No Iterations 0
DILUPBiCGStab:  Solving for Ux, Initial residual = 1.87538e-05, Final residual = 6.38275e-11, No Iterations 1
DILUPBiCGStab:  Solving for Uy, Initial residual = 1.57695e-05, Final residual = 7.85543e-11, No Iterations 1
DILUPBiCGStab:  Solving for h, Initial residual = 5.02902e-05, Final residual = 1.38112e-10, No Iterations 1
DICPCG:  Solving for p_rgh, Initial residual = 0.00122778, Final residual = 9.33888e-06, No Iterations 18
diagonal:  Solving for rho, Initial residual = 0, Final residual = 0, No Iterations 0
time step continuity errors : sum local = 2.67854e-10, global = 2.28092e-11, cumulative = -1.80234e-07
DICPCG:  Solving for p_rgh, Initial residual = 9.87084e-06, Final residual = 8.1279e-09, No Iterations 27
diagonal:  Solving for rho, Initial residual = 0, Final residual = 0, No Iterations 0
time step continuity errors : sum local = 3.85124e-12, global = 3.84104e-12, cumulative = -1.8023e-07
DILUPBiCGStab:  Solving for epsilon, Initial residual = 5.70079e-06, Final residual = 2.85398e-11, No Iterations 1
DILUPBiCGStab:  Solving for k, Initial residual = 8.74218e-06, Final residual = 4.86999e-11, No Iterations 1
ExecutionTime = 0.07 s  ClockTime = 0 s

Courant Number mean: 0.00272576 max: 0.0147851
Time = 710.3

diagonal:  Solving for rho, Initial residual = 0, Final residual = 0, No Iterations 0
DILUPBiCGStab:  Solving for Ux, Initial residual = 3.00815e-05, Final residual = 7.91836e-11, No Iterations 1
DILUPBiCGStab:  Solving for Uy, Initial residual = 1.93932e-05, Final residual = 1.0649e-10, No Iterations 1
DILUPBiCGStab:  Solving for h, Initial residual = 5.2081e-05, Final residual = 1.41866e-10, No Iterations 1
DICPCG:  Solving for p_rgh, Initial residual = 0.000812769, Final residual = 5.93687e-06, No Iterations 16
diagonal:  Solving for rho, Initial residual = 0, Final residual = 0, No Iterations 0
time step continuity errors : sum local = 1.69959e-10, global = 4.44953e-12, cumulative = -1.80225e-07
DICPCG:  Solving for p_rgh, Initial residual = 6.56582e-06, Final residual = 7.59519e-09, No Iterations 25
diagonal:  Solving for rho, Initial residual = 0, Final residual = 0, No Iterations 0
time step continuity errors : sum local = 2.431e-12, global = 2.41509e-12, cumulative = -1.80223e-07
DILUPBiCGStab:  Solving for epsilon, Initial residual = 5.72065e-06, Final residual = 2.88839e-11, No Iterations 1
DILUPBiCGStab:  Solving for k, Initial residual = 8.76375e-06, Final residual = 4.89376e-11, No Iterations 1
ExecutionTime = 0.07 s  ClockTime = 0 s

Courant Number mean: 0.00272572 max: 0.0147837
Time = 710.31

diagonal:  Solving for rho, Initial residual = 0, Final residual = 0, No Iterations 0
DILUPBiCGStab:  Solving for Ux, Initial residual = 3.75334e-05, Final residual = 9.45257e-11, No Iterations 1
DILUPBiCGStab:  Solving for Uy, Initial residual = 2.19674e-05, Final residual = 1.22284e-10, No Iterations 1
DILUPBiCGStab:  Solving for h, Initial residual = 5.48028e-05, Final residual = 1.47615e-10, No Iterations 1
DICPCG:  Solving for p_rgh, Initial residual = 0.000326429, Final residual = 2.90623e-06, No Iterations 21
diagonal:  Solving for rho, Initial residual = 0, Final residual = 0, No Iterations 0
time step continuity errors : sum local = 8.6871e-11, global = 9.29511e-12, cumulative = -1.80214e-07
DICPCG:  Solving for p_rgh, Initial residual = 3.2515e-06, Final residual = 5.57842e-09, No Iterations 24
diagonal:  Solving for rho, Initial residual = 0, Final residual = 0, No Iterations 0
time step continuity errors : sum local = 8.16898e-13, global = 7.8879e-13, cumulative = -1.80213e-07
DILUPBiCGStab:  Solving for epsilon, Initial residual = 5.74152e-06, Final residual = 2.92452e-11, No Iterations 1
DILUPBiCGStab:  Solving for k, Initial residual = 8.78656e-06, Final residual = 4.918e-11, No Iterations 1
ExecutionTime = 0.08 s  ClockTime = 0 s

Courant Number mean: 0.00272568 max: 0.0147823
Time = 710.32

diagonal:  Solving for rho, Initial residual = 0, Final residual = 0, No Iterations 0
DILUPBiCGStab:  Solving for Ux, Initial residual = 3.94386e-05, Final residual = 9.9318e-11, No Iterations 1
DILUPBiCGStab:  Solving for Uy, Initial residual = 2.27828e-05, Final residual = 1.25097e-10, No Iterations 1
DILUPBiCGStab:  Solving for h, Initial residual = 5.79339e-05, Final residual = 1.54269e-10, No Iterations 1
DICPCG:  Solving for p_rgh, Initial residual = 0.000294682, Final residual = 2.23168e-06, No Iterations 20
diagonal:  Solving for rho, Initial residual = 0, Final residual = 0, No Iterations 0
time step continuity errors : sum local = 6.63118e-11, global = 1.06674e-11, cumulative = -1.80202e-07
DICPCG:  Solving for p_rgh, Initial residual = 2.74335e-06, Final residual = 8.00224e-09, No Iterations 24
diagonal:  Solving for rho, Initial residual = 0, Final residual = 0, No Iterations 0
time step continuity errors : sum local = 8.4526e-13, global = -7.65897e-13, cumulative = -1.80203e-07
DILUPBiCGStab:  Solving for epsilon, Initial residual = 5.76005e-06, Final residual = 2.9566e-11, No Iterations 1
DILUPBiCGStab:  Solving for k, Initial residual = 8.80693e-06, Final residual = 4.93891e-11, No Iterations 1
ExecutionTime = 0.08 s  ClockTime = 0 s

Courant Number mean: 0.00272564 max: 0.0147811
Time = 710.33

diagonal:  Solving for rho, Initial residual = 0, Final residual = 0, No Iterations 0
DILUPBiCGStab:  Solving for Ux, Initial residual = 3.58901e-05, Final residual = 9.15677e-11, No Iterations 1
DILUPBiCGStab:  Solving for Uy, Initial residual = 2.19201e-05, Final residual = 1.1676e-10, No Iterations 1
DILUPBiCGStab:  Solving for h, Initial residual = 6.09446e-05, Final residual = 1.60717e-10, No Iterations 1
DICPCG:  Solving for p_rgh, Initial residual = 0.000598736, Final residual = 4.00932e-06, No Iterations 20
diagonal:  Solving for rho, Initial residual = 0, Final residual = 0, No Iterations 0
time step continuity errors : sum local = 1.1552e-10, global = 9.98739e-12, cumulative = -1.80193e-07
DICPCG:  Solving for p_rgh, Initial residual = 4.96641e-06, Final residual = 9.05182e-09, No Iterations 25
diagonal:  Solving for rho, Initial residual = 0, Final residual = 0, No Iterations 0
time step continuity errors : sum local = 2.03794e-12, global = -2.01523e-12, cumulative = -1.80195e-07
DILUPBiCGStab:  Solving for epsilon, Initial residual = 5.77366e-06, Final residual = 2.98016e-11, No Iterations 1
DILUPBiCGStab:  Solving for k, Initial residual = 8.82198e-06, Final residual = 4.95389e-11, No Iterations 1
ExecutionTime = 0.08 s  ClockTime = 0 s

Courant Number mean: 0.0027256 max: 0.0147801
Time = 710.34

diagonal:  Solving for rho, Initial residual = 0, Final residual = 0, No Iterations 0
DILUPBiCGStab:  Solving for Ux, Initial residual = 2.85011e-05, Final residual = 7.74411e-11, No Iterations 1
DILUPBiCGStab:  Solving for Uy, Initial residual = 1.97214e-05, Final residual = 1.00052e-10, No Iterations 1
DILUPBiCGStab:  Solving for h, Initial residual = 6.33702e-05, Final residual = 1.65928e-10, No Iterations 1
DICPCG:  Solving for p_rgh, Initial residual = 0.000824338, Final residual = 6.2188e-06, No Iterations 20
diagonal:  Solving for rho, Initial residual = 0, Final residual = 0, No Iterations 0
time step continuity errors : sum local = 1.77719e-10, global = 7.90312e-12, cumulative = -1.80187e-07
DICPCG:  Solving for p_rgh, Initial residual = 7.39783e-06, Final residual = 6.8306e-09, No Iterations 27
diagonal:  Solving for rho, Initial residual = 0, Final residual = 0, No Iterations 0
time step continuity errors : sum local = 2.83031e-12, global = -2.82631e-12, cumulative = -1.8019e-07
DILUPBiCGStab:  Solving for epsilon, Initial residual = 5.78083e-06, Final residual = 2.99261e-11, No Iterations 1
DILUPBiCGStab:  Solving for k, Initial residual = 8.83001e-06, Final residual = 4.96171e-11, No Iterations 1
ExecutionTime = 0.08 s  ClockTime = 0 s

Courant Number mean: 0.00272556 max: 0.0147795
Time = 710.35

diagonal:  Solving for rho, Initial residual = 0, Final residual = 0, No Iterations 0
DILUPBiCGStab:  Solving for Ux, Initial residual = 1.94953e-05, Final residual = 6.45975e-11, No Iterations 1
DILUPBiCGStab:  Solving for Uy, Initial residual = 1.67743e-05, Final residual = 7.90376e-11, No Iterations 1
DILUPBiCGStab:  Solving for h, Initial residual = 6.49049e-05, Final residual = 1.69253e-10, No Iterations 1
DICPCG:  Solving for p_rgh, Initial residual = 0.000934105, Final residual = 7.88123e-06, No Iterations 20
diagonal:  Solving for rho, Initial residual = 0, Final residual = 0, No Iterations 0
time step continuity errors : sum local = 2.2536e-10, global = 7.53845e-12, cumulative = -1.80182e-07
DICPCG:  Solving for p_rgh, Initial residual = 9.11293e-06, Final residual = 9.3232e-09, No Iterations 26
diagonal:  Solving for rho, Initial residual = 0, Final residual = 0, No Iterations 0
time step continuity errors : sum local = 3.09856e-12, global = -3.08306e-12, cumulative = -1.80185e-07
DILUPBiCGStab:  Solving for epsilon, Initial residual = 5.78121e-06, Final residual = 2.99336e-11, No Iterations 1
DILUPBiCGStab:  Solving for k, Initial residual = 8.83058e-06, Final residual = 4.96229e-11, No Iterations 1
ExecutionTime = 0.09 s  ClockTime = 0 s

Courant Number mean: 0.00272552 max: 0.0147794
Time = 710.36

diagonal:  Solving for rho, Initial residual = 0, Final residual = 0, No Iterations 0
DILUPBiCGStab:  Solving for Ux, Initial residual = 1.55699e-05, Final residual = 7.30072e-11, No Iterations 1
DILUPBiCGStab:  Solving for Uy, Initial residual = 1.42697e-05, Final residual = 5.86306e-11, No Iterations 1
DILUPBiCGStab:  Solving for h, Initial residual = 6.54167e-05, Final residual = 1.70362e-10, No Iterations 1
DICPCG:  Solving for p_rgh, Initial residual = 0.000887184, Final residual = 7.95784e-06, No Iterations 20
diagonal:  Solving for rho, Initial residual = 0, Final residual = 0, No Iterations 0
time step continuity errors : sum local = 2.26977e-10, global = 7.47032e-12, cumulative = -1.80178e-07
DICPCG:  Solving for p_rgh, Initial residual = 9.01113e-06, Final residual = 5.78311e-09, No Iterations 26
diagonal:  Solving for rho, Initial residual = 0, Final residual = 0, No Iterations 0
time step continuity errors : sum local = 2.85606e-12, global = -2.84755e-12, cumulative = -1.80181e-07
DILUPBiCGStab:  Solving for epsilon, Initial residual = 5.77556e-06, Final residual = 2.9837e-11, No Iterations 1
DILUPBiCGStab:  Solving for k, Initial residual = 8.82448e-06, Final residual = 4.95641e-11, No Iterations 1
ExecutionTime = 0.09 s  ClockTime = 0 s

Courant Number mean: 0.00272548 max: 0.0147795
Time = 710.37

diagonal:  Solving for rho, Initial residual = 0, Final residual = 0, No Iterations 0
DILUPBiCGStab:  Solving for Ux, Initial residual = 1.93184e-05, Final residual = 9.11496e-11, No Iterations 1
DILUPBiCGStab:  Solving for Uy, Initial residual = 1.30557e-05, Final residual = 5.31011e-11, No Iterations 1
DILUPBiCGStab:  Solving for h, Initial residual = 6.49476e-05, Final residual = 1.6935e-10, No Iterations 1
DICPCG:  Solving for p_rgh, Initial residual = 0.000708363, Final residual = 6.64176e-06, No Iterations 16
diagonal:  Solving for rho, Initial residual = 0, Final residual = 0, No Iterations 0
time step continuity errors : sum local = 1.90093e-10, global = 2.99906e-12, cumulative = -1.80178e-07
DICPCG:  Solving for p_rgh, Initial residual = 7.14496e-06, Final residual = 7.01857e-09, No Iterations 27
diagonal:  Solving for rho, Initial residual = 0, Final residual = 0, No Iterations 0
time step continuity errors : sum local = 2.20496e-12, global = -2.19305e-12, cumulative = -1.8018e-07
DILUPBiCGStab:  Solving for epsilon, Initial residual = 5.76546e-06, Final residual = 2.96637e-11, No Iterations 1
DILUPBiCGStab:  Solving for k, Initial residual = 8.81344e-06, Final residual = 4.94561e-11, No Iterations 1
ExecutionTime = 0.09 s  ClockTime = 0 s

Courant Number mean: 0.00272543 max: 0.01478
Time = 710.38

diagonal:  Solving for rho, Initial residual = 0, Final residual = 0, No Iterations 0
DILUPBiCGStab:  Solving for Ux, Initial residual = 2.47249e-05, Final residual = 1.05385e-10, No Iterations 1
DILUPBiCGStab:  Solving for Uy, Initial residual = 1.37091e-05, Final residual = 5.94954e-11, No Iterations 1
DILUPBiCGStab:  Solving for h, Initial residual = 6.3686e-05, Final residual = 1.66612e-10, No Iterations 1
DICPCG:  Solving for p_rgh, Initial residual = 0.000441153, Final residual = 3.86146e-06, No Iterations 17
diagonal:  Solving for rho, Initial residual = 0, Final residual = 0, No Iterations 0
time step continuity errors : sum local = 1.08741e-10, global = 1.51355e-11, cumulative = -1.80165e-07
DICPCG:  Solving for p_rgh, Initial residual = 4.18143e-06, Final residual = 7.11856e-09, No Iterations 24
diagonal:  Solving for rho, Initial residual = 0, Final residual = 0, No Iterations 0
time step continuity errors : sum local = 1.30697e-12, global = -1.27872e-12, cumulative = -1.80166e-07
DILUPBiCGStab:  Solving for epsilon, Initial residual = 5.753e-06, Final residual = 2.94498e-11, No Iterations 1
DILUPBiCGStab:  Solving for k, Initial residual = 8.79973e-06, Final residual = 4.93192e-11, No Iterations 1
ExecutionTime = 0.09 s  ClockTime = 0 s

Courant Number mean: 0.00272539 max: 0.0147806
Time = 710.39

diagonal:  Solving for rho, Initial residual = 0, Final residual = 0, No Iterations 0
DILUPBiCGStab:  Solving for Ux, Initial residual = 2.80254e-05, Final residual = 1.13692e-10, No Iterations 1
DILUPBiCGStab:  Solving for Uy, Initial residual = 1.44154e-05, Final residual = 6.39161e-11, No Iterations 1
DILUPBiCGStab:  Solving for h, Initial residual = 6.19208e-05, Final residual = 1.62766e-10, No Iterations 1
DICPCG:  Solving for p_rgh, Initial residual = 0.000141401, Final residual = 1.01486e-06, No Iterations 22
diagonal:  Solving for rho, Initial residual = 0, Final residual = 0, No Iterations 0
time step continuity errors : sum local = 3.07068e-11, global = 1.05693e-11, cumulative = -1.80156e-07
DICPCG:  Solving for p_rgh, Initial residual = 1.29456e-06, Final residual = 8.08632e-09, No Iterations 21
diagonal:  Solving for rho, Initial residual = 0, Final residual = 0, No Iterations 0
time step continuity errors : sum local = 3.82065e-13, global = -2.81635e-13, cumulative = -1.80156e-07
DILUPBiCGStab:  Solving for epsilon, Initial residual = 5.7404e-06, Final residual = 2.92332e-11, No Iterations 1
DILUPBiCGStab:  Solving for k, Initial residual = 8.78577e-06, Final residual = 4.91769e-11, No Iterations 1
ExecutionTime = 0.09 s  ClockTime = 0 s

Courant Number mean: 0.00272534 max: 0.0147812
Time = 710.4

diagonal:  Solving for rho, Initial residual = 0, Final residual = 0, No Iterations 0
DILUPBiCGStab:  Solving for Ux, Initial residual = 2.83631e-05, Final residual = 1.14276e-10, No Iterations 1
DILUPBiCGStab:  Solving for Uy, Initial residual = 1.46162e-05, Final residual = 6.4267e-11, No Iterations 1
DILUPBiCGStab:  Solving for h, Initial residual = 5.99842e-05, Final residual = 1.58586e-10, No Iterations 1
DICPCG:  Solving for p_rgh, Initial residual = 0.000227802, Final residual = 1.60096e-06, No Iterations 18
diagonal:  Solving for rho, Initial residual = 0, Final residual = 0, No Iterations 0
time step continuity errors : sum local = 4.63416e-11, global = 1.046e-11, cumulative = -1.80145e-07
DICPCG:  Solving for p_rgh, Initial residual = 2.04383e-06, Final residual = 6.42065e-09, No Iterations 25
diagonal:  Solving for rho, Initial residual = 0, Final residual = 0, No Iterations 0
time step continuity errors : sum local = 7.043e-13, global = 6.46978e-13, cumulative = -1.80145e-07
DILUPBiCGStab:  Solving for epsilon, Initial residual = 5.72962e-06, Final residual = 2.90479e-11, No Iterations 1
DILUPBiCGStab:  Solving for k, Initial residual = 8.77374e-06, Final residual = 4.90523e-11, No Iterations 1
ExecutionTime = 0.1 s  ClockTime = 0 s

Courant Number mean: 0.0027253 max: 0.0147817
Time = 710.41

diagonal:  Solving for rho, Initial residual = 0, Final residual = 0, No Iterations 0
DILUPBiCGStab:  Solving for Ux, Initial residual = 2.60078e-05, Final residual = 1.07968e-10, No Iterations 1
DILUPBiCGStab:  Solving for Uy, Initial residual = 1.43179e-05, Final residual = 6.1013e-11, No Iterations 1
DILUPBiCGStab:  Solving for h, Initial residual = 5.81958e-05, Final residual = 1.54697e-10, No Iterations 1
DICPCG:  Solving for p_rgh, Initial residual = 0.000401618, Final residual = 2.54336e-06, No Iterations 20
diagonal:  Solving for rho, Initial residual = 0, Final residual = 0, No Iterations 0
time step continuity errors : sum local = 7.3282e-11, global = 1.03096e-11, cumulative = -1.80134e-07
DICPCG:  Solving for p_rgh, Initial residual = 3.1332e-06, Final residual = 7.86134e-09, No Iterations 25
diagonal:  Solving for rho, Initial residual = 0, Final residual = 0, No Iterations 0
time step continuity errors : sum local = 1.39102e-12, global = 1.36127e-12, cumulative = -1.80133e-07
DILUPBiCGStab:  Solving for epsilon, Initial residual = 5.72212e-06, Final residual = 2.8919e-11, No Iterations 1
DILUPBiCGStab:  Solving for k, Initial residual = 8.76526e-06, Final residual = 4.89636e-11, No Iterations 1
ExecutionTime = 0.1 s  ClockTime = 0 s

Courant Number mean: 0.00272526 max: 0.014782
Time = 710.42

diagonal:  Solving for rho, Initial residual = 0, Final residual = 0, No Iterations 0
DILUPBiCGStab:  Solving for Ux, Initial residual = 2.18474e-05, Final residual = 9.71752e-11, No Iterations 1
DILUPBiCGStab:  Solving for Uy, Initial residual = 1.38005e-05, Final residual = 5.59395e-11, No Iterations 1
DILUPBiCGStab:  Solving for h, Initial residual = 5.68141e-05, Final residual = 1.51672e-10, No Iterations 1
DICPCG:  Solving for p_rgh, Initial residual = 0.000530186, Final residual = 3.9548e-06, No Iterations 20
diagonal:  Solving for rho, Initial residual = 0, Final residual = 0, No Iterations 0
time step continuity errors : sum local = 1.13703e-10, global = 1.13683e-11, cumulative = -1.80122e-07
DICPCG:  Solving for p_rgh, Initial residual = 4.69561e-06, Final residual = 9.48073e-09, No Iterations 19
diagonal:  Solving for rho, Initial residual = 0, Final residual = 0, No Iterations 0
time step continuity errors : sum local = 1.86757e-12, global = 1.83887e-12, cumulative = -1.8012e-07
DILUPBiCGStab:  Solving for epsilon, Initial residual = 5.71866e-06, Final residual = 2.88599e-11, No Iterations 1
DILUPBiCGStab:  Solving for k, Initial residual = 8.7612e-06, Final residual = 4.89216e-11, No Iterations 1
ExecutionTime = 0.1 s  ClockTime = 0 s

Courant Number mean: 0.00272521 max: 0.014782
Time = 710.43

diagonal:  Solving for rho, Initial residual = 0, Final residual = 0, No Iterations 0
DILUPBiCGStab:  Solving for Ux, Initial residual = 1.78128e-05, Final residual = 8.53917e-11, No Iterations 1
DILUPBiCGStab:  Solving for Uy, Initial residual = 1.34251e-05, Final residual = 5.23481e-11, No Iterations 1
DILUPBiCGStab:  Solving for h, Initial residual = 5.60043e-05, Final residual = 1.49899e-10, No Iterations 1
DICPCG:  Solving for p_rgh, Initial residual = 0.000573984, Final residual = 4.63801e-06, No Iterations 20
diagonal:  Solving for rho, Initial residual = 0, Final residual = 0, No Iterations 0
time step continuity errors : sum local = 1.32916e-10, global = 1.16879e-11, cumulative = -1.80108e-07
DICPCG:  Solving for p_rgh, Initial residual = 5.34866e-06, Final residual = 8.22551e-09, No Iterations 19
diagonal:  Solving for rho, Initial residual = 0, Final residual = 0, No Iterations 0
time step continuity errors : sum local = 1.84663e-12, global = 1.81642e-12, cumulative = -1.80106e-07
DILUPBiCGStab:  Solving for epsilon, Initial residual = 5.71932e-06, Final residual = 2.88715e-11, No Iterations 1
DILUPBiCGStab:  Solving for k, Initial residual = 8.76166e-06, Final residual = 4.89279e-11, No Iterations 1
ExecutionTime = 0.1 s  ClockTime = 0 s

Courant Number mean: 0.00272517 max: 0.0147819
Time = 710.44

diagonal:  Solving for rho, Initial residual = 0, Final residual = 0, No Iterations 0
DILUPBiCGStab:  Solving for Ux, Initial residual = 1.55451e-05, Final residual = 7.32706e-11, No Iterations 1
DILUPBiCGStab:  Solving for Uy, Initial residual = 1.38285e-05, Final residual = 5.79998e-11, No Iterations 1
DILUPBiCGStab:  Solving for h, Initial residual = 5.58235e-05, Final residual = 1.4947e-10, No Iterations 1
DICPCG:  Solving for p_rgh, Initial residual = 0.000523602, Final residual = 4.43494e-06, No Iterations 20
diagonal:  Solving for rho, Initial residual = 0, Final residual = 0, No Iterations 0
time step continuity errors : sum local = 1.27171e-10, global = 1.17899e-11, cumulative = -1.80095e-07
DICPCG:  Solving for p_rgh, Initial residual = 5.0175e-06, Final residual = 6.57352e-09, No Iterations 25
diagonal:  Solving for rho, Initial residual = 0, Final residual = 0, No Iterations 0
time step continuity errors : sum local = 1.67617e-12, global = 1.65912e-12, cumulative = -1.80093e-07
DILUPBiCGStab:  Solving for epsilon, Initial residual = 5.72349e-06, Final residual = 2.89439e-11, No Iterations 1
DILUPBiCGStab:  Solving for k, Initial residual = 8.76601e-06, Final residual = 4.8976e-11, No Iterations 1
ExecutionTime = 0.1 s  ClockTime = 0 s

Courant Number mean: 0.00272513 max: 0.0147815
Time = 710.45

diagonal:  Solving for rho, Initial residual = 0, Final residual = 0, No Iterations 0
DILUPBiCGStab:  Solving for Ux, Initial residual = 1.63482e-05, Final residual = 6.5559e-11, No Iterations 1
DILUPBiCGStab:  Solving for Uy, Initial residual = 1.46832e-05, Final residual = 6.8793e-11, No Iterations 1
DILUPBiCGStab:  Solving for h, Initial residual = 5.62249e-05, Final residual = 1.50284e-10, No Iterations 1
DICPCG:  Solving for p_rgh, Initial residual = 0.000399176, Final residual = 3.18085e-06, No Iterations 16
diagonal:  Solving for rho, Initial residual = 0, Final residual = 0, No Iterations 0
time step continuity errors : sum local = 9.07475e-11, global = 1.30835e-11, cumulative = -1.8008e-07
DICPCG:  Solving for p_rgh, Initial residual = 3.45144e-06, Final residual = 6.27198e-09, No Iterations 25
diagonal:  Solving for rho, Initial residual = 0, Final residual = 0, No Iterations 0
time step continuity errors : sum local = 1.24951e-12, global = 1.22972e-12, cumulative = -1.80079e-07
DILUPBiCGStab:  Solving for epsilon, Initial residual = 5.73013e-06, Final residual = 2.90588e-11, No Iterations 1
DILUPBiCGStab:  Solving for k, Initial residual = 8.77312e-06, Final residual = 4.90526e-11, No Iterations 1
ExecutionTime = 0.1 s  ClockTime = 0 s

Courant Number mean: 0.00272508 max: 0.0147809
Time = 710.46

diagonal:  Solving for rho, Initial residual = 0, Final residual = 0, No Iterations 0
DILUPBiCGStab:  Solving for Ux, Initial residual = 1.83414e-05, Final residual = 6.38872e-11, No Iterations 1
DILUPBiCGStab:  Solving for Uy, Initial residual = 1.57475e-05, Final residual = 7.73664e-11, No Iterations 1
DILUPBiCGStab:  Solving for h, Initial residual = 5.70772e-05, Final residual = 1.52084e-10, No Iterations 1
DICPCG:  Solving for p_rgh, Initial residual = 0.000228664, Final residual = 1.94736e-06, No Iterations 20
diagonal:  Solving for rho, Initial residual = 0, Final residual = 0, No Iterations 0
time step continuity errors : sum local = 5.85854e-11, global = 9.28664e-12, cumulative = -1.80069e-07
DICPCG:  Solving for p_rgh, Initial residual = 2.27142e-06, Final residual = 8.1735e-09, No Iterations 24
diagonal:  Solving for rho, Initial residual = 0, Final residual = 0, No Iterations 0
time step continuity errors : sum local = 7.11425e-13, global = 6.45543e-13, cumulative = -1.80069e-07
DILUPBiCGStab:  Solving for epsilon, Initial residual = 5.73792e-06, Final residual = 2.91934e-11, No Iterations 1
DILUPBiCGStab:  Solving for k, Initial residual = 8.78154e-06, Final residual = 4.91419e-11, No Iterations 1
ExecutionTime = 0.11 s  ClockTime = 0 s

Courant Number mean: 0.00272504 max: 0.0147803
Time = 710.47

diagonal:  Solving for rho, Initial residual = 0, Final residual = 0, No Iterations 0
DILUPBiCGStab:  Solving for Ux, Initial residual = 1.98049e-05, Final residual = 6.46077e-11, No Iterations 1
DILUPBiCGStab:  Solving for Uy, Initial residual = 1.6376e-05, Final residual = 8.13856e-11, No Iterations 1
DILUPBiCGStab:  Solving for h, Initial residual = 5.81949e-05, Final residual = 1.54477e-10, No Iterations 1
DICPCG:  Solving for p_rgh, Initial residual = 5.98553e-05, Final residual = 4.25222e-07, No Iterations 22
diagonal:  Solving for rho, Initial residual = 0, Final residual = 0, No Iterations 0
time step continuity errors : sum local = 1.70928e-11, global = 1.00198e-11, cumulative = -1.80059e-07
DICPCG:  Solving for p_rgh, Initial residual = 6.71515e-07, Final residual = 6.11161e-09, No Iterations 21
diagonal:  Solving for rho, Initial residual = 0, Final residual = 0, No Iterations 0
time step continuity errors : sum local = 2.47796e-13, global = 4.16734e-14, cumulative = -1.80059e-07
DILUPBiCGStab:  Solving for epsilon, Initial residual = 5.74553e-06, Final residual = 2.93248e-11, No Iterations 1
DILUPBiCGStab:  Solving for k, Initial residual = 8.7898e-06, Final residual = 4.92282e-11, No Iterations 1
ExecutionTime = 0.11 s  ClockTime = 0 s

Courant Number mean: 0.002725 max: 0.0147797
Time = 710.48

diagonal:  Solving for rho, Initial residual = 0, Final residual = 0, No Iterations 0
DILUPBiCGStab:  Solving for Ux, Initial residual = 1.96506e-05, Final residual = 6.45447e-11, No Iterations 1
DILUPBiCGStab:  Solving for Uy, Initial residual = 1.64093e-05, Final residual = 8.08173e-11, No Iterations 1
DILUPBiCGStab:  Solving for h, Initial residual = 5.93735e-05, Final residual = 1.56999e-10, No Iterations 1
DICPCG:  Solving for p_rgh, Initial residual = 0.000168417, Final residual = 1.3327e-06, No Iterations 19
diagonal:  Solving for rho, Initial residual = 0, Final residual = 0, No Iterations 0
time step continuity errors : sum local = 4.05083e-11, global = 9.88328e-12, cumulative = -1.80049e-07
DICPCG:  Solving for p_rgh, Initial residual = 1.6853e-06, Final residual = 8.6337e-09, No Iterations 24
diagonal:  Solving for rho, Initial residual = 0, Final residual = 0, No Iterations 0
time step continuity errors : sum local = 5.95572e-13, global = -5.06628e-13, cumulative = -1.80049e-07
DILUPBiCGStab:  Solving for epsilon, Initial residual = 5.75179e-06, Final residual = 2.94331e-11, No Iterations 1
DILUPBiCGStab:  Solving for k, Initial residual = 8.79664e-06, Final residual = 4.9299e-11, No Iterations 1
ExecutionTime = 0.11 s  ClockTime = 0 s

Courant Number mean: 0.00272496 max: 0.0147792
Time = 710.49

diagonal:  Solving for rho, Initial residual = 0, Final residual = 0, No Iterations 0
DILUPBiCGStab:  Solving for Ux, Initial residual = 1.81412e-05, Final residual = 6.39728e-11, No Iterations 1
DILUPBiCGStab:  Solving for Uy, Initial residual = 1.59179e-05, Final residual = 7.64312e-11, No Iterations 1
DILUPBiCGStab:  Solving for h, Initial residual = 6.04233e-05, Final residual = 1.59241e-10, No Iterations 1
DICPCG:  Solving for p_rgh, Initial residual = 0.000265909, Final residual = 2.06125e-06, No Iterations 20
diagonal:  Solving for rho, Initial residual = 0, Final residual = 0, No Iterations 0
time step continuity errors : sum local = 5.94006e-11, global = 9.75426e-12, cumulative = -1.80039e-07
DICPCG:  Solving for p_rgh, Initial residual = 2.51472e-06, Final residual = 9.46533e-09, No Iterations 24
diagonal:  Solving for rho, Initial residual = 0, Final residual = 0, No Iterations 0
time step continuity errors : sum local = 9.54873e-13, global = -9.12081e-13, cumulative = -1.8004e-07
DILUPBiCGStab:  Solving for epsilon, Initial residual = 5.75592e-06, Final residual = 2.95045e-11, No Iterations 1
DILUPBiCGStab:  Solving for k, Initial residual = 8.80116e-06, Final residual = 4.93454e-11, No Iterations 1
ExecutionTime = 0.11 s  ClockTime = 0 s

Courant Number mean: 0.00272492 max: 0.0147788
Time = 710.5

diagonal:  Solving for rho, Initial residual = 0, Final residual = 0, No Iterations 0
DILUPBiCGStab:  Solving for Ux, Initial residual = 1.65181e-05, Final residual = 6.545e-11, No Iterations 1
DILUPBiCGStab:  Solving for Uy, Initial residual = 1.50979e-05, Final residual = 6.94706e-11, No Iterations 1
DILUPBiCGStab:  Solving for h, Initial residual = 6.11972e-05, Final residual = 1.60893e-10, No Iterations 1
DICPCG:  Solving for p_rgh, Initial residual = 0.000336527, Final residual = 2.82224e-06, No Iterations 20
diagonal:  Solving for rho, Initial residual = 0, Final residual = 0, No Iterations 0
time step continuity errors : sum local = 8.07081e-11, global = 9.11244e-12, cumulative = -1.80031e-07
DICPCG:  Solving for p_rgh, Initial residual = 3.33741e-06, Final residual = 6.75595e-09, No Iterations 25
diagonal:  Solving for rho, Initial residual = 0, Final residual = 0, No Iterations 0
time step continuity errors : sum local = 1.15454e-12, global = -1.12174e-12, cumulative = -1.80032e-07
DILUPBiCGStab:  Solving for epsilon, Initial residual = 5.75752e-06, Final residual = 2.95326e-11, No Iterations 1
DILUPBiCGStab:  Solving for k, Initial residual = 8.80292e-06, Final residual = 4.93637e-11, No Iterations 1
ExecutionTime = 0.12 s  ClockTime = 0 s

Courant Number mean: 0.00272488 max: 0.0147785
Time = 710.51

diagonal:  Solving for rho, Initial residual = 0, Final residual = 0, No Iterations 0
DILUPBiCGStab:  Solving for Ux, Initial residual = 1.55701e-05, Final residual = 7.01934e-11, No Iterations 1
DILUPBiCGStab:  Solving for Uy, Initial residual = 1.42549e-05, Final residual = 6.16046e-11, No Iterations 1
DILUPBiCGStab:  Solving for h, Initial residual = 6.16078e-05, Final residual = 1.61773e-10, No Iterations 1
DICPCG:  Solving for p_rgh, Initial residual = 0.000351131, Final residual = 3.20476e-06, No Iterations 20
diagonal:  Solving for rho, Initial residual = 0, Final residual = 0, No Iterations 0
time step continuity errors : sum local = 9.19698e-11, global = 9.09358e-12, cumulative = -1.80023e-07
DICPCG:  Solving for p_rgh, Initial residual = 3.68835e-06, Final residual = 7.29589e-09, No Iterations 24
diagonal:  Solving for rho, Initial residual = 0, Final residual = 0, No Iterations 0
time step continuity errors : sum local = 1.16567e-12, global = -1.13586e-12, cumulative = -1.80024e-07
DILUPBiCGStab:  Solving for epsilon, Initial residual = 5.75667e-06, Final residual = 2.95182e-11, No Iterations 1
DILUPBiCGStab:  Solving for k, Initial residual = 8.80196e-06, Final residual = 4.93546e-11, No Iterations 1
ExecutionTime = 0.12 s  ClockTime = 0 s

Courant Number mean: 0.00272483 max: 0.0147784
Time = 710.52

diagonal:  Solving for rho, Initial residual = 0, Final residual = 0, No Iterations 0
DILUPBiCGStab:  Solving for Ux, Initial residual = 1.59099e-05, Final residual = 7.67047e-11, No Iterations 1
DILUPBiCGStab:  Solving for Uy, Initial residual = 1.35439e-05, Final residual = 5.51606e-11, No Iterations 1
DILUPBiCGStab:  Solving for h, Initial residual = 6.16347e-05, Final residual = 1.61821e-10, No Iterations 1
DICPCG:  Solving for p_rgh, Initial residual = 0.000310317, Final residual = 2.75758e-06, No Iterations 20
diagonal:  Solving for rho, Initial residual = 0, Final residual = 0, No Iterations 0
time step continuity errors : sum local = 7.94963e-11, global = 9.13124e-12, cumulative = -1.80015e-07
DICPCG:  Solving for p_rgh, Initial residual = 3.16103e-06, Final residual = 6.45762e-09, No Iterations 24
diagonal:  Solving for rho, Initial residual = 0, Final residual = 0, No Iterations 0
time step continuity errors : sum local = 1.00595e-12, global = -9.72694e-13, cumulative = -1.80016e-07
DILUPBiCGStab:  Solving for epsilon, Initial residual = 5.75377e-06, Final residual = 2.94687e-11, No Iterations 1
DILUPBiCGStab:  Solving for k, Initial residual = 8.79876e-06, Final residual = 4.93228e-11, No Iterations 1
ExecutionTime = 0.12 s  ClockTime = 0 s

Courant Number mean: 0.00272479 max: 0.0147785
Time = 710.53

diagonal:  Solving for rho, Initial residual = 0, Final residual = 0, No Iterations 0
DILUPBiCGStab:  Solving for Ux, Initial residual = 1.71432e-05, Final residual = 8.32513e-11, No Iterations 1
DILUPBiCGStab:  Solving for Uy, Initial residual = 1.30718e-05, Final residual = 5.23294e-11, No Iterations 1
DILUPBiCGStab:  Solving for h, Initial residual = 6.13188e-05, Final residual = 1.61121e-10, No Iterations 1
DICPCG:  Solving for p_rgh, Initial residual = 0.000227176, Final residual = 1.65971e-06, No Iterations 16
diagonal:  Solving for rho, Initial residual = 0, Final residual = 0, No Iterations 0
time step continuity errors : sum local = 5.04261e-11, global = 9.9775e-12, cumulative = -1.80006e-07
DICPCG:  Solving for p_rgh, Initial residual = 1.97199e-06, Final residual = 9.79233e-09, No Iterations 23
diagonal:  Solving for rho, Initial residual = 0, Final residual = 0, No Iterations 0
time step continuity errors : sum local = 7.70998e-13, global = -6.73133e-13, cumulative = -1.80007e-07
DILUPBiCGStab:  Solving for epsilon, Initial residual = 5.74954e-06, Final residual = 2.93962e-11, No Iterations 1
DILUPBiCGStab:  Solving for k, Initial residual = 8.79405e-06, Final residual = 4.92755e-11, No Iterations 1
ExecutionTime = 0.12 s  ClockTime = 0 s

Courant Number mean: 0.00272475 max: 0.0147786
Time = 710.54

diagonal:  Solving for rho, Initial residual = 0, Final residual = 0, No Iterations 0
DILUPBiCGStab:  Solving for Ux, Initial residual = 1.82405e-05, Final residual = 8.73567e-11, No Iterations 1
DILUPBiCGStab:  Solving for Uy, Initial residual = 1.3119e-05, Final residual = 5.25901e-11, No Iterations 1
DILUPBiCGStab:  Solving for h, Initial residual = 6.07494e-05, Final residual = 1.59873e-10, No Iterations 1
DICPCG:  Solving for p_rgh, Initial residual = 0.000120728, Final residual = 9.6007e-07, No Iterations 21
diagonal:  Solving for rho, Initial residual = 0, Final residual = 0, No Iterations 0
time step continuity errors : sum local = 2.86883e-11, global = 1.05706e-11, cumulative = -1.79996e-07
DICPCG:  Solving for p_rgh, Initial residual = 1.10504e-06, Final residual = 5.08722e-09, No Iterations 22
diagonal:  Solving for rho, Initial residual = 0, Final residual = 0, No Iterations 0
time step continuity errors : sum local = 3.80156e-13, global = -3.18433e-13, cumulative = -1.79997e-07
DILUPBiCGStab:  Solving for epsilon, Initial residual = 5.74478e-06, Final residual = 2.93147e-11, No Iterations 1
DILUPBiCGStab:  Solving for k, Initial residual = 8.78874e-06, Final residual = 4.9222e-11, No Iterations 1
ExecutionTime = 0.12 s  ClockTime = 0 s

Courant Number mean: 0.0027247 max: 0.0147787
Time = 710.55

diagonal:  Solving for rho, Initial residual = 0, Final residual = 0, No Iterations 0
DILUPBiCGStab:  Solving for Ux, Initial residual = 1.87401e-05, Final residual = 8.89567e-11, No Iterations 1
DILUPBiCGStab:  Solving for Uy, Initial residual = 1.32005e-05, Final residual = 5.29791e-11, No Iterations 1
DILUPBiCGStab:  Solving for h, Initial residual = 6.00443e-05, Final residual = 1.58332e-10, No Iterations 1
DICPCG:  Solving for p_rgh, Initial residual = 4.92792e-05, Final residual = 3.15931e-07, No Iterations 22
diagonal:  Solving for rho, Initial residual = 0, Final residual = 0, No Iterations 0
time step continuity errors : sum local = 1.46415e-11, global = 1.02787e-11, cumulative = -1.79986e-07
DICPCG:  Solving for p_rgh, Initial residual = 5.79496e-07, Final residual = 7.45659e-09, No Iterations 18
diagonal:  Solving for rho, Initial residual = 0, Final residual = 0, No Iterations 0
time step continuity errors : sum local = 2.56872e-13, global = 4.25654e-14, cumulative = -1.79986e-07
DILUPBiCGStab:  Solving for epsilon, Initial residual = 5.74031e-06, Final residual = 2.92379e-11, No Iterations 1
DILUPBiCGStab:  Solving for k, Initial residual = 8.78371e-06, Final residual = 4.91711e-11, No Iterations 1
ExecutionTime = 0.13 s  ClockTime = 0 s

Courant Number mean: 0.00272466 max: 0.0147788
Time = 710.56

diagonal:  Solving for rho, Initial residual = 0, Final residual = 0, No Iterations 0
DILUPBiCGStab:  Solving for Ux, Initial residual = 1.85247e-05, Final residual = 8.81798e-11, No Iterations 1
DILUPBiCGStab:  Solving for Uy, Initial residual = 1.32374e-05, Final residual = 5.28617e-11, No Iterations 1
DILUPBiCGStab:  Solving for h, Initial residual = 5.93284e-05, Final residual = 1.56765e-10, No Iterations 1
DICPCG:  Solving for p_rgh, Initial residual = 0.000117963, Final residual = 7.51286e-07, No Iterations 20
diagonal:  Solving for rho, Initial residual = 0, Final residual = 0, No Iterations 0
time step continuity errors : sum local = 2.42132e-11, global = 1.01405e-11, cumulative = -1.79976e-07
DICPCG:  Solving for p_rgh, Initial residual = 1.00146e-06, Final residual = 7.47043e-09, No Iterations 22
diagonal:  Solving for rho, Initial residual = 0, Final residual = 0, No Iterations 0
time step continuity errors : sum local = 4.66115e-13, global = 3.7041e-13, cumulative = -1.79976e-07
DILUPBiCGStab:  Solving for epsilon, Initial residual = 5.73678e-06, Final residual = 2.91774e-11, No Iterations 1
DILUPBiCGStab:  Solving for k, Initial residual = 8.77969e-06, Final residual = 4.91303e-11, No Iterations 1
ExecutionTime = 0.13 s  ClockTime = 0 s

Courant Number mean: 0.00272462 max: 0.0147789
Time = 710.57

diagonal:  Solving for rho, Initial residual = 0, Final residual = 0, No Iterations 0
DILUPBiCGStab:  Solving for Ux, Initial residual = 1.77547e-05, Final residual = 8.54624e-11, No Iterations 1
DILUPBiCGStab:  Solving for Uy, Initial residual = 1.32311e-05, Final residual = 5.24108e-11, No Iterations 1
DILUPBiCGStab:  Solving for h, Initial residual = 5.87133e-05, Final residual = 1.55412e-10, No Iterations 1
DICPCG:  Solving for p_rgh, Initial residual = 0.000173426, Final residual = 1.33564e-06, No Iterations 20
diagonal:  Solving for rho, Initial residual = 0, Final residual = 0, No Iterations 0
time step continuity errors : sum local = 3.96091e-11, global = 1.0465e-11, cumulative = -1.79965e-07
DICPCG:  Solving for p_rgh, Initial residual = 1.61953e-06, Final residual = 8.61172e-09, No Iterations 23
diagonal:  Solving for rho, Initial residual = 0, Final residual = 0, No Iterations 0
time step continuity errors : sum local = 6.56044e-13, global = 5.92695e-13, cumulative = -1.79965e-07
DILUPBiCGStab:  Solving for epsilon, Initial residual = 5.73464e-06, Final residual = 2.91407e-11, No Iterations 1
DILUPBiCGStab:  Solving for k, Initial residual = 8.77717e-06, Final residual = 4.91051e-11, No Iterations 1
ExecutionTime = 0.13 s  ClockTime = 0 s

Courant Number mean: 0.00272457 max: 0.0147789
Time = 710.58

diagonal:  Solving for rho, Initial residual = 0, Final residual = 0, No Iterations 0
DILUPBiCGStab:  Solving for Ux, Initial residual = 1.67854e-05, Final residual = 8.13297e-11, No Iterations 1
DILUPBiCGStab:  Solving for Uy, Initial residual = 1.33167e-05, Final residual = 5.31368e-11, No Iterations 1
DILUPBiCGStab:  Solving for h, Initial residual = 5.8282e-05, Final residual = 1.54453e-10, No Iterations 1
DICPCG:  Solving for p_rgh, Initial residual = 0.000209739, Final residual = 1.64085e-06, No Iterations 20
diagonal:  Solving for rho, Initial residual = 0, Final residual = 0, No Iterations 0
time step continuity errors : sum local = 4.82172e-11, global = 1.06389e-11, cumulative = -1.79954e-07
DICPCG:  Solving for p_rgh, Initial residual = 1.95735e-06, Final residual = 6.74386e-09, No Iterations 24
diagonal:  Solving for rho, Initial residual = 0, Final residual = 0, No Iterations 0
time step continuity errors : sum local = 7.36679e-13, global = 6.88528e-13, cumulative = -1.79953e-07
DILUPBiCGStab:  Solving for epsilon, Initial residual = 5.73405e-06, Final residual = 2.91307e-11, No Iterations 1
DILUPBiCGStab:  Solving for k, Initial residual = 8.77637e-06, Final residual = 4.90976e-11, No Iterations 1
ExecutionTime = 0.13 s  ClockTime = 1 s

Courant Number mean: 0.00272453 max: 0.0147788
Time = 710.59

diagonal:  Solving for rho, Initial residual = 0, Final residual = 0, No Iterations 0
DILUPBiCGStab:  Solving for Ux, Initial residual = 1.59185e-05, Final residual = 7.65848e-11, No Iterations 1
DILUPBiCGStab:  Solving for Uy, Initial residual = 1.3522e-05, Final residual = 5.5128e-11, No Iterations 1
DILUPBiCGStab:  Solving for h, Initial residual = 5.80792e-05, Final residual = 1.53987e-10, No Iterations 1
DICPCG:  Solving for p_rgh, Initial residual = 0.000210794, Final residual = 1.71512e-06, No Iterations 20
[...]

Courant Number mean: 0.00268372 max: 0.0146408
Time = 719.86

diagonal:  Solving for rho, Initial residual = 0, Final residual = 0, No Iterations 0
DILUPBiCGStab:  Solving for Ux, Initial residual = 1.61895e-05, Final residual = 7.52295e-11, No Iterations 1
DILUPBiCGStab:  Solving for Uy, Initial residual = 1.37596e-05, Final residual = 5.50085e-11, No Iterations 1
DILUPBiCGStab:  Solving for h, Initial residual = 5.80427e-05, Final residual = 1.49804e-10, No Iterations 1
DICPCG:  Solving for p_rgh, Initial residual = 1.4704e-05, Final residual = 1.41182e-07, No Iterations 18
diagonal:  Solving for rho, Initial residual = 0, Final residual = 0, No Iterations 0
time step continuity errors : sum local = 1.09625e-11, global = 9.77721e-12, cumulative = -1.70682e-07
DICPCG:  Solving for p_rgh, Initial residual = 3.99643e-07, Final residual = 8.98265e-09, No Iterations 18
diagonal:  Solving for rho, Initial residual = 0, Final residual = 0, No Iterations 0
time step continuity errors : sum local = 2.86249e-13, global = -7.23313e-15, cumulative = -1.70682e-07
DILUPBiCGStab:  Solving for epsilon, Initial residual = 5.83389e-06, Final residual = 2.94894e-11, No Iterations 1
DILUPBiCGStab:  Solving for k, Initial residual = 8.78784e-06, Final residual = 4.8962e-11, No Iterations 1
ExecutionTime = 2.21 s  ClockTime = 3 s

Courant Number mean: 0.00268368 max: 0.0146406
Time = 719.87

diagonal:  Solving for rho, Initial residual = 0, Final residual = 0, No Iterations 0
DILUPBiCGStab:  Solving for Ux, Initial residual = 1.61901e-05, Final residual = 7.52301e-11, No Iterations 1
DILUPBiCGStab:  Solving for Uy, Initial residual = 1.37598e-05, Final residual = 5.50058e-11, No Iterations 1
DILUPBiCGStab:  Solving for h, Initial residual = 5.80412e-05, Final residual = 1.49797e-10, No Iterations 1
DICPCG:  Solving for p_rgh, Initial residual = 1.4704e-05, Final residual = 1.41389e-07, No Iterations 18
diagonal:  Solving for rho, Initial residual = 0, Final residual = 0, No Iterations 0
time step continuity errors : sum local = 1.09675e-11, global = 9.7822e-12, cumulative = -1.70672e-07
DICPCG:  Solving for p_rgh, Initial residual = 3.99712e-07, Final residual = 8.97686e-09, No Iterations 18
diagonal:  Solving for rho, Initial residual = 0, Final residual = 0, No Iterations 0
time step continuity errors : sum local = 3.01359e-13, global = -1.71826e-15, cumulative = -1.70672e-07
DILUPBiCGStab:  Solving for epsilon, Initial residual = 5.83402e-06, Final residual = 2.94894e-11, No Iterations 1
DILUPBiCGStab:  Solving for k, Initial residual = 8.78785e-06, Final residual = 4.89618e-11, No Iterations 1
ExecutionTime = 2.21 s  ClockTime = 3 s

Courant Number mean: 0.00268363 max: 0.0146405
Time = 719.88

diagonal:  Solving for rho, Initial residual = 0, Final residual = 0, No Iterations 0
DILUPBiCGStab:  Solving for Ux, Initial residual = 1.61908e-05, Final residual = 7.52307e-11, No Iterations 1
DILUPBiCGStab:  Solving for Uy, Initial residual = 1.376e-05, Final residual = 5.50031e-11, No Iterations 1
DILUPBiCGStab:  Solving for h, Initial residual = 5.80397e-05, Final residual = 1.4979e-10, No Iterations 1
DICPCG:  Solving for p_rgh, Initial residual = 1.47036e-05, Final residual = 1.41093e-07, No Iterations 18
diagonal:  Solving for rho, Initial residual = 0, Final residual = 0, No Iterations 0
time step continuity errors : sum local = 1.09617e-11, global = 9.78683e-12, cumulative = -1.70663e-07
DICPCG:  Solving for p_rgh, Initial residual = 3.99214e-07, Final residual = 8.8945e-09, No Iterations 18
diagonal:  Solving for rho, Initial residual = 0, Final residual = 0, No Iterations 0
time step continuity errors : sum local = 2.92083e-13, global = -6.16649e-15, cumulative = -1.70663e-07
DILUPBiCGStab:  Solving for epsilon, Initial residual = 5.83414e-06, Final residual = 2.94894e-11, No Iterations 1
DILUPBiCGStab:  Solving for k, Initial residual = 8.78786e-06, Final residual = 4.89615e-11, No Iterations 1
ExecutionTime = 2.21 s  ClockTime = 3 s

Courant Number mean: 0.00268359 max: 0.0146403
Time = 719.89

diagonal:  Solving for rho, Initial residual = 0, Final residual = 0, No Iterations 0
DILUPBiCGStab:  Solving for Ux, Initial residual = 1.61914e-05, Final residual = 7.52314e-11, No Iterations 1
DILUPBiCGStab:  Solving for Uy, Initial residual = 1.37603e-05, Final residual = 5.50004e-11, No Iterations 1
DILUPBiCGStab:  Solving for h, Initial residual = 5.80381e-05, Final residual = 1.49783e-10, No Iterations 1
DICPCG:  Solving for p_rgh, Initial residual = 1.47033e-05, Final residual = 1.4096e-07, No Iterations 18
diagonal:  Solving for rho, Initial residual = 0, Final residual = 0, No Iterations 0
time step continuity errors : sum local = 1.09699e-11, global = 9.77901e-12, cumulative = -1.70653e-07
DICPCG:  Solving for p_rgh, Initial residual = 3.99782e-07, Final residual = 8.9512e-09, No Iterations 18
diagonal:  Solving for rho, Initial residual = 0, Final residual = 0, No Iterations 0
time step continuity errors : sum local = 2.91197e-13, global = -8.43933e-15, cumulative = -1.70653e-07
DILUPBiCGStab:  Solving for epsilon, Initial residual = 5.83427e-06, Final residual = 2.94895e-11, No Iterations 1
DILUPBiCGStab:  Solving for k, Initial residual = 8.78786e-06, Final residual = 4.89613e-11, No Iterations 1
ExecutionTime = 2.21 s  ClockTime = 3 s

Courant Number mean: 0.00268354 max: 0.0146402
Time = 719.9

diagonal:  Solving for rho, Initial residual = 0, Final residual = 0, No Iterations 0
DILUPBiCGStab:  Solving for Ux, Initial residual = 1.61921e-05, Final residual = 7.5232e-11, No Iterations 1
DILUPBiCGStab:  Solving for Uy, Initial residual = 1.37605e-05, Final residual = 5.49977e-11, No Iterations 1
DILUPBiCGStab:  Solving for h, Initial residual = 5.80366e-05, Final residual = 1.49776e-10, No Iterations 1
DICPCG:  Solving for p_rgh, Initial residual = 1.4705e-05, Final residual = 1.41371e-07, No Iterations 18
diagonal:  Solving for rho, Initial residual = 0, Final residual = 0, No Iterations 0
time step continuity errors : sum local = 1.09654e-11, global = 9.7812e-12, cumulative = -1.70643e-07
DICPCG:  Solving for p_rgh, Initial residual = 3.99467e-07, Final residual = 8.99714e-09, No Iterations 18
diagonal:  Solving for rho, Initial residual = 0, Final residual = 0, No Iterations 0
time step continuity errors : sum local = 3.00244e-13, global = -3.05372e-15, cumulative = -1.70643e-07
DILUPBiCGStab:  Solving for epsilon, Initial residual = 5.83439e-06, Final residual = 2.94895e-11, No Iterations 1
DILUPBiCGStab:  Solving for k, Initial residual = 8.78787e-06, Final residual = 4.8961e-11, No Iterations 1
ExecutionTime = 2.22 s  ClockTime = 3 s

Courant Number mean: 0.0026835 max: 0.01464
Time = 719.91

diagonal:  Solving for rho, Initial residual = 0, Final residual = 0, No Iterations 0
DILUPBiCGStab:  Solving for Ux, Initial residual = 1.61928e-05, Final residual = 7.52326e-11, No Iterations 1
DILUPBiCGStab:  Solving for Uy, Initial residual = 1.37607e-05, Final residual = 5.4995e-11, No Iterations 1
DILUPBiCGStab:  Solving for h, Initial residual = 5.80351e-05, Final residual = 1.49769e-10, No Iterations 1
DICPCG:  Solving for p_rgh, Initial residual = 1.47044e-05, Final residual = 1.40905e-07, No Iterations 18
diagonal:  Solving for rho, Initial residual = 0, Final residual = 0, No Iterations 0
time step continuity errors : sum local = 1.09603e-11, global = 9.77579e-12, cumulative = -1.70633e-07
DICPCG:  Solving for p_rgh, Initial residual = 3.99424e-07, Final residual = 8.9463e-09, No Iterations 18
diagonal:  Solving for rho, Initial residual = 0, Final residual = 0, No Iterations 0
time step continuity errors : sum local = 2.94977e-13, global = -6.33002e-15, cumulative = -1.70633e-07
DILUPBiCGStab:  Solving for epsilon, Initial residual = 5.83452e-06, Final residual = 2.94895e-11, No Iterations 1
DILUPBiCGStab:  Solving for k, Initial residual = 8.78787e-06, Final residual = 4.89607e-11, No Iterations 1
ExecutionTime = 2.22 s  ClockTime = 3 s

Courant Number mean: 0.00268345 max: 0.0146399
Time = 719.92

diagonal:  Solving for rho, Initial residual = 0, Final residual = 0, No Iterations 0
DILUPBiCGStab:  Solving for Ux, Initial residual = 1.61934e-05, Final residual = 7.52332e-11, No Iterations 1
DILUPBiCGStab:  Solving for Uy, Initial residual = 1.3761e-05, Final residual = 5.49923e-11, No Iterations 1
DILUPBiCGStab:  Solving for h, Initial residual = 5.80336e-05, Final residual = 1.49762e-10, No Iterations 1
DICPCG:  Solving for p_rgh, Initial residual = 1.47044e-05, Final residual = 1.41e-07, No Iterations 18
diagonal:  Solving for rho, Initial residual = 0, Final residual = 0, No Iterations 0
time step continuity errors : sum local = 1.09596e-11, global = 9.77276e-12, cumulative = -1.70623e-07
DICPCG:  Solving for p_rgh, Initial residual = 3.99287e-07, Final residual = 9.00228e-09, No Iterations 18
diagonal:  Solving for rho, Initial residual = 0, Final residual = 0, No Iterations 0
time step continuity errors : sum local = 3.01837e-13, global = -1.21071e-14, cumulative = -1.70623e-07
DILUPBiCGStab:  Solving for epsilon, Initial residual = 5.83465e-06, Final residual = 2.94895e-11, No Iterations 1
DILUPBiCGStab:  Solving for k, Initial residual = 8.78788e-06, Final residual = 4.89605e-11, No Iterations 1
ExecutionTime = 2.22 s  ClockTime = 3 s

Courant Number mean: 0.0026834 max: 0.0146397
Time = 719.93

diagonal:  Solving for rho, Initial residual = 0, Final residual = 0, No Iterations 0
DILUPBiCGStab:  Solving for Ux, Initial residual = 1.61941e-05, Final residual = 7.52338e-11, No Iterations 1
DILUPBiCGStab:  Solving for Uy, Initial residual = 1.37612e-05, Final residual = 5.49896e-11, No Iterations 1
DILUPBiCGStab:  Solving for h, Initial residual = 5.8032e-05, Final residual = 1.49755e-10, No Iterations 1
DICPCG:  Solving for p_rgh, Initial residual = 1.47068e-05, Final residual = 1.41374e-07, No Iterations 18
diagonal:  Solving for rho, Initial residual = 0, Final residual = 0, No Iterations 0
time step continuity errors : sum local = 1.09712e-11, global = 9.78431e-12, cumulative = -1.70614e-07
DICPCG:  Solving for p_rgh, Initial residual = 3.99589e-07, Final residual = 9.05288e-09, No Iterations 18
diagonal:  Solving for rho, Initial residual = 0, Final residual = 0, No Iterations 0
time step continuity errors : sum local = 3.07191e-13, global = -8.91463e-15, cumulative = -1.70614e-07
DILUPBiCGStab:  Solving for epsilon, Initial residual = 5.83477e-06, Final residual = 2.94895e-11, No Iterations 1
DILUPBiCGStab:  Solving for k, Initial residual = 8.78788e-06, Final residual = 4.89602e-11, No Iterations 1
ExecutionTime = 2.22 s  ClockTime = 3 s

Courant Number mean: 0.00268336 max: 0.0146396
Time = 719.94

diagonal:  Solving for rho, Initial residual = 0, Final residual = 0, No Iterations 0
DILUPBiCGStab:  Solving for Ux, Initial residual = 1.61947e-05, Final residual = 7.52344e-11, No Iterations 1
DILUPBiCGStab:  Solving for Uy, Initial residual = 1.37614e-05, Final residual = 5.49869e-11, No Iterations 1
DILUPBiCGStab:  Solving for h, Initial residual = 5.80305e-05, Final residual = 1.49748e-10, No Iterations 1
DICPCG:  Solving for p_rgh, Initial residual = 1.47054e-05, Final residual = 1.41245e-07, No Iterations 18
diagonal:  Solving for rho, Initial residual = 0, Final residual = 0, No Iterations 0
time step continuity errors : sum local = 1.09583e-11, global = 9.77229e-12, cumulative = -1.70604e-07
DICPCG:  Solving for p_rgh, Initial residual = 3.99552e-07, Final residual = 8.97922e-09, No Iterations 18
diagonal:  Solving for rho, Initial residual = 0, Final residual = 0, No Iterations 0
time step continuity errors : sum local = 2.96911e-13, global = -9.09467e-15, cumulative = -1.70604e-07
DILUPBiCGStab:  Solving for epsilon, Initial residual = 5.8349e-06, Final residual = 2.94895e-11, No Iterations 1
DILUPBiCGStab:  Solving for k, Initial residual = 8.78789e-06, Final residual = 4.896e-11, No Iterations 1
ExecutionTime = 2.22 s  ClockTime = 3 s

Courant Number mean: 0.00268331 max: 0.0146394
Time = 719.95

diagonal:  Solving for rho, Initial residual = 0, Final residual = 0, No Iterations 0
DILUPBiCGStab:  Solving for Ux, Initial residual = 1.61954e-05, Final residual = 7.52351e-11, No Iterations 1
DILUPBiCGStab:  Solving for Uy, Initial residual = 1.37617e-05, Final residual = 5.49842e-11, No Iterations 1
DILUPBiCGStab:  Solving for h, Initial residual = 5.8029e-05, Final residual = 1.49741e-10, No Iterations 1
DICPCG:  Solving for p_rgh, Initial residual = 1.47053e-05, Final residual = 1.41039e-07, No Iterations 18
diagonal:  Solving for rho, Initial residual = 0, Final residual = 0, No Iterations 0
time step continuity errors : sum local = 1.09596e-11, global = 9.77522e-12, cumulative = -1.70594e-07
DICPCG:  Solving for p_rgh, Initial residual = 3.99297e-07, Final residual = 8.97373e-09, No Iterations 18
diagonal:  Solving for rho, Initial residual = 0, Final residual = 0, No Iterations 0
time step continuity errors : sum local = 2.92544e-13, global = -5.26503e-15, cumulative = -1.70594e-07
DILUPBiCGStab:  Solving for epsilon, Initial residual = 5.83502e-06, Final residual = 2.94895e-11, No Iterations 1
DILUPBiCGStab:  Solving for k, Initial residual = 8.78789e-06, Final residual = 4.89597e-11, No Iterations 1
ExecutionTime = 2.23 s  ClockTime = 3 s

Courant Number mean: 0.00268327 max: 0.0146393
Time = 719.96

diagonal:  Solving for rho, Initial residual = 0, Final residual = 0, No Iterations 0
DILUPBiCGStab:  Solving for Ux, Initial residual = 1.6196e-05, Final residual = 7.52356e-11, No Iterations 1
DILUPBiCGStab:  Solving for Uy, Initial residual = 1.37619e-05, Final residual = 5.49815e-11, No Iterations 1
DILUPBiCGStab:  Solving for h, Initial residual = 5.80275e-05, Final residual = 1.49734e-10, No Iterations 1
DICPCG:  Solving for p_rgh, Initial residual = 1.47072e-05, Final residual = 1.41085e-07, No Iterations 18
diagonal:  Solving for rho, Initial residual = 0, Final residual = 0, No Iterations 0
time step continuity errors : sum local = 1.09662e-11, global = 9.7697e-12, cumulative = -1.70584e-07
DICPCG:  Solving for p_rgh, Initial residual = 3.99784e-07, Final residual = 8.95747e-09, No Iterations 18
diagonal:  Solving for rho, Initial residual = 0, Final residual = 0, No Iterations 0
time step continuity errors : sum local = 3.00719e-13, global = -9.33335e-15, cumulative = -1.70584e-07
DILUPBiCGStab:  Solving for epsilon, Initial residual = 5.83515e-06, Final residual = 2.94894e-11, No Iterations 1
DILUPBiCGStab:  Solving for k, Initial residual = 8.7879e-06, Final residual = 4.89594e-11, No Iterations 1
ExecutionTime = 2.23 s  ClockTime = 3 s

Courant Number mean: 0.00268322 max: 0.0146391
Time = 719.97

diagonal:  Solving for rho, Initial residual = 0, Final residual = 0, No Iterations 0
DILUPBiCGStab:  Solving for Ux, Initial residual = 1.61967e-05, Final residual = 7.52362e-11, No Iterations 1
DILUPBiCGStab:  Solving for Uy, Initial residual = 1.37621e-05, Final residual = 5.49788e-11, No Iterations 1
DILUPBiCGStab:  Solving for h, Initial residual = 5.80259e-05, Final residual = 1.49727e-10, No Iterations 1
DICPCG:  Solving for p_rgh, Initial residual = 1.4705e-05, Final residual = 1.4087e-07, No Iterations 18
diagonal:  Solving for rho, Initial residual = 0, Final residual = 0, No Iterations 0
time step continuity errors : sum local = 1.09622e-11, global = 9.77098e-12, cumulative = -1.70575e-07
DICPCG:  Solving for p_rgh, Initial residual = 3.99333e-07, Final residual = 8.91713e-09, No Iterations 18
diagonal:  Solving for rho, Initial residual = 0, Final residual = 0, No Iterations 0
time step continuity errors : sum local = 2.91424e-13, global = -7.87029e-15, cumulative = -1.70575e-07
DILUPBiCGStab:  Solving for epsilon, Initial residual = 5.83527e-06, Final residual = 2.94894e-11, No Iterations 1
DILUPBiCGStab:  Solving for k, Initial residual = 8.7879e-06, Final residual = 4.89592e-11, No Iterations 1
ExecutionTime = 2.23 s  ClockTime = 3 s

Courant Number mean: 0.00268318 max: 0.014639
Time = 719.98

diagonal:  Solving for rho, Initial residual = 0, Final residual = 0, No Iterations 0
DILUPBiCGStab:  Solving for Ux, Initial residual = 1.61973e-05, Final residual = 7.52368e-11, No Iterations 1
DILUPBiCGStab:  Solving for Uy, Initial residual = 1.37623e-05, Final residual = 5.4976e-11, No Iterations 1
DILUPBiCGStab:  Solving for h, Initial residual = 5.80244e-05, Final residual = 1.4972e-10, No Iterations 1
DICPCG:  Solving for p_rgh, Initial residual = 1.4708e-05, Final residual = 1.4104e-07, No Iterations 18
diagonal:  Solving for rho, Initial residual = 0, Final residual = 0, No Iterations 0
time step continuity errors : sum local = 1.09562e-11, global = 9.76743e-12, cumulative = -1.70565e-07
DICPCG:  Solving for p_rgh, Initial residual = 3.99285e-07, Final residual = 8.96683e-09, No Iterations 18
diagonal:  Solving for rho, Initial residual = 0, Final residual = 0, No Iterations 0
time step continuity errors : sum local = 2.93116e-13, global = -1.24792e-14, cumulative = -1.70565e-07
DILUPBiCGStab:  Solving for epsilon, Initial residual = 5.8354e-06, Final residual = 2.94894e-11, No Iterations 1
DILUPBiCGStab:  Solving for k, Initial residual = 8.78791e-06, Final residual = 4.89589e-11, No Iterations 1
ExecutionTime = 2.23 s  ClockTime = 3 s

Courant Number mean: 0.00268313 max: 0.0146388
Time = 719.99

diagonal:  Solving for rho, Initial residual = 0, Final residual = 0, No Iterations 0
DILUPBiCGStab:  Solving for Ux, Initial residual = 1.6198e-05, Final residual = 7.52374e-11, No Iterations 1
DILUPBiCGStab:  Solving for Uy, Initial residual = 1.37626e-05, Final residual = 5.49733e-11, No Iterations 1
DILUPBiCGStab:  Solving for h, Initial residual = 5.80229e-05, Final residual = 1.49713e-10, No Iterations 1
DICPCG:  Solving for p_rgh, Initial residual = 1.47066e-05, Final residual = 1.40805e-07, No Iterations 18
diagonal:  Solving for rho, Initial residual = 0, Final residual = 0, No Iterations 0
time step continuity errors : sum local = 1.0954e-11, global = 9.77613e-12, cumulative = -1.70555e-07
DICPCG:  Solving for p_rgh, Initial residual = 3.99355e-07, Final residual = 8.973e-09, No Iterations 18
diagonal:  Solving for rho, Initial residual = 0, Final residual = 0, No Iterations 0
time step continuity errors : sum local = 2.99374e-13, global = -9.74795e-15, cumulative = -1.70555e-07
DILUPBiCGStab:  Solving for epsilon, Initial residual = 5.83552e-06, Final residual = 2.94894e-11, No Iterations 1
DILUPBiCGStab:  Solving for k, Initial residual = 8.78791e-06, Final residual = 4.89586e-11, No Iterations 1
ExecutionTime = 2.24 s  ClockTime = 3 s

Courant Number mean: 0.00268308 max: 0.0146387
Time = 720

diagonal:  Solving for rho, Initial residual = 0, Final residual = 0, No Iterations 0
DILUPBiCGStab:  Solving for Ux, Initial residual = 1.61986e-05, Final residual = 7.5238e-11, No Iterations 1
DILUPBiCGStab:  Solving for Uy, Initial residual = 1.37628e-05, Final residual = 5.49706e-11, No Iterations 1
DILUPBiCGStab:  Solving for h, Initial residual = 5.80214e-05, Final residual = 1.49706e-10, No Iterations 1
DICPCG:  Solving for p_rgh, Initial residual = 1.47075e-05, Final residual = 1.40865e-07, No Iterations 18
diagonal:  Solving for rho, Initial residual = 0, Final residual = 0, No Iterations 0
time step continuity errors : sum local = 1.09624e-11, global = 9.77429e-12, cumulative = -1.70545e-07
DICPCG:  Solving for p_rgh, Initial residual = 3.99488e-07, Final residual = 9.03111e-09, No Iterations 18
diagonal:  Solving for rho, Initial residual = 0, Final residual = 0, No Iterations 0
time step continuity errors : sum local = 2.95707e-13, global = -1.21327e-14, cumulative = -1.70545e-07
DILUPBiCGStab:  Solving for epsilon, Initial residual = 5.83565e-06, Final residual = 2.94894e-11, No Iterations 1
DILUPBiCGStab:  Solving for k, Initial residual = 8.78791e-06, Final residual = 4.89584e-11, No Iterations 1
ExecutionTime = 2.24 s  ClockTime = 3 s

End

