/*---------------------------------------------------------------------------*\
  =========                 |
  \\      /  F ield         | OpenFOAM: The Open Source CFD Toolbox
   \\    /   O peration     | Website:  https://openfoam.org
    \\  /    A nd           | Version:  6
     \\/     M anipulation  |
\*---------------------------------------------------------------------------*/
Build  : 6-e29811f5dff8
Exec   : buoyantPimpleFoam -case /home/mamitsu/OpenFOAM/mamitsu-6/run/aircond5/play/case0
Date   : Nov 23 2020
Time   : 01:33:12
Host   : "mamitsu-desktop"
PID    : 25946
I/O    : uncollated
Case   : /home/mamitsu/OpenFOAM/mamitsu-6/run/aircond5/play/case0
nProcs : 1
sigFpe : Enabling floating point exception trapping (FOAM_SIGFPE).
fileModificationChecking : Monitoring run-time modified files using timeStampMaster (fileModificationSkew 10)
allowSystemOperations : Allowing user-supplied system call operations

// * * * * * * * * * * * * * * * * * * * * * * * * * * * * * * * * * * * * * //
Create time

Create mesh for time = 710


PIMPLE: No convergence criteria found


PIMPLE: Operating solver in PISO mode

Reading thermophysical properties

Selecting thermodynamics package
{
    type            heRhoThermo;
    mixture         pureMixture;
    transport       const;
    thermo          hConst;
    equationOfState perfectGas;
    specie          specie;
    energy          sensibleEnthalpy;
}

Reading field U

Reading/calculating face flux field phi

Creating turbulence model

Selecting turbulence model type RAS
Selecting RAS turbulence model kEpsilon
RAS
{
    RASModel        kEpsilon;
    turbulence      on;
    printCoeffs     on;
    Cmu             0.09;
    C1              1.44;
    C2              1.92;
    C3              0;
    sigmak          1;
    sigmaEps        1.3;
}


Reading g

Reading hRef
Calculating field g.h

Reading field p_rgh

Creating field dpdt

Creating field kinetic energy K

No MRF models present

Radiation model not active: radiationProperties not found
Selecting radiationModel none
No finite volume options present
Courant Number mean: 0.00431419 max: 0.017677

Starting time loop

Courant Number mean: 0.00431419 max: 0.017677
Time = 710.01

diagonal:  Solving for rho, Initial residual = 0, Final residual = 0, No Iterations 0
DILUPBiCGStab:  Solving for Ux, Initial residual = 0.00269367, Final residual = 1.32487e-08, No Iterations 1
DILUPBiCGStab:  Solving for Uy, Initial residual = 0.0921012, Final residual = 4.45953e-07, No Iterations 1
DILUPBiCGStab:  Solving for h, Initial residual = 2.23036e-05, Final residual = 1.03263e-10, No Iterations 1
DICPCG:  Solving for p_rgh, Initial residual = 0.989977, Final residual = 0.00784619, No Iterations 3
diagonal:  Solving for rho, Initial residual = 0, Final residual = 0, No Iterations 0
time step continuity errors : sum local = 9.51971e-06, global = -8.13376e-08, cumulative = -8.13376e-08
DICPCG:  Solving for p_rgh, Initial residual = 0.223424, Final residual = 6.40126e-09, No Iterations 40
diagonal:  Solving for rho, Initial residual = 0, Final residual = 0, No Iterations 0
time step continuity errors : sum local = 3.20836e-10, global = -2.44165e-11, cumulative = -8.1362e-08
DILUPBiCGStab:  Solving for epsilon, Initial residual = 2.75202e-06, Final residual = 1.99752e-11, No Iterations 1
DILUPBiCGStab:  Solving for k, Initial residual = 4.74669e-06, Final residual = 3.67849e-11, No Iterations 1
ExecutionTime = 0.01 s  ClockTime = 0 s

Courant Number mean: 0.00431434 max: 0.0176787
Time = 710.02

diagonal:  Solving for rho, Initial residual = 0, Final residual = 0, No Iterations 0
DILUPBiCGStab:  Solving for Ux, Initial residual = 0.000225534, Final residual = 9.74706e-10, No Iterations 1
DILUPBiCGStab:  Solving for Uy, Initial residual = 0.000237038, Final residual = 1.137e-09, No Iterations 1
DILUPBiCGStab:  Solving for h, Initial residual = 8.81861e-05, Final residual = 3.16105e-10, No Iterations 1
DICPCG:  Solving for p_rgh, Initial residual = 0.124672, Final residual = 0.00121763, No Iterations 16
diagonal:  Solving for rho, Initial residual = 0, Final residual = 0, No Iterations 0
time step continuity errors : sum local = 4.46021e-08, global = -2.47914e-10, cumulative = -8.16099e-08
DICPCG:  Solving for p_rgh, Initial residual = 0.00127774, Final residual = 6.32636e-09, No Iterations 33
diagonal:  Solving for rho, Initial residual = 0, Final residual = 0, No Iterations 0
time step continuity errors : sum local = 1.28439e-11, global = -9.5876e-12, cumulative = -8.16195e-08
DILUPBiCGStab:  Solving for epsilon, Initial residual = 2.64142e-06, Final residual = 1.97894e-11, No Iterations 1
DILUPBiCGStab:  Solving for k, Initial residual = 4.37806e-06, Final residual = 3.17738e-11, No Iterations 1
ExecutionTime = 0.01 s  ClockTime = 0 s

Courant Number mean: 0.00431437 max: 0.0176825
Time = 710.03

diagonal:  Solving for rho, Initial residual = 0, Final residual = 0, No Iterations 0
DILUPBiCGStab:  Solving for Ux, Initial residual = 0.000168144, Final residual = 5.05105e-10, No Iterations 1
DILUPBiCGStab:  Solving for Uy, Initial residual = 0.000253855, Final residual = 1.2992e-09, No Iterations 1
DILUPBiCGStab:  Solving for h, Initial residual = 4.59877e-05, Final residual = 1.48873e-10, No Iterations 1
DICPCG:  Solving for p_rgh, Initial residual = 0.0632568, Final residual = 0.000519022, No Iterations 17
diagonal:  Solving for rho, Initial residual = 0, Final residual = 0, No Iterations 0
time step continuity errors : sum local = 1.85036e-08, global = 9.61951e-11, cumulative = -8.15233e-08
DICPCG:  Solving for p_rgh, Initial residual = 0.000563402, Final residual = 9.89382e-09, No Iterations 32
diagonal:  Solving for rho, Initial residual = 0, Final residual = 0, No Iterations 0
time step continuity errors : sum local = 1.00038e-11, global = -1.00025e-11, cumulative = -8.15333e-08
DILUPBiCGStab:  Solving for epsilon, Initial residual = 2.66075e-06, Final residual = 2.00145e-11, No Iterations 1
DILUPBiCGStab:  Solving for k, Initial residual = 4.40891e-06, Final residual = 3.21374e-11, No Iterations 1
ExecutionTime = 0.02 s  ClockTime = 0 s

Courant Number mean: 0.00431432 max: 0.0176839
Time = 710.04

diagonal:  Solving for rho, Initial residual = 0, Final residual = 0, No Iterations 0
DILUPBiCGStab:  Solving for Ux, Initial residual = 5.72457e-05, Final residual = 1.46159e-10, No Iterations 1
DILUPBiCGStab:  Solving for Uy, Initial residual = 4.85651e-05, Final residual = 2.10825e-10, No Iterations 1
DILUPBiCGStab:  Solving for h, Initial residual = 4.90215e-05, Final residual = 2.12401e-10, No Iterations 1
DICPCG:  Solving for p_rgh, Initial residual = 0.00432255, Final residual = 1.88153e-05, No Iterations 22
diagonal:  Solving for rho, Initial residual = 0, Final residual = 0, No Iterations 0
time step continuity errors : sum local = 6.50204e-10, global = 1.66913e-12, cumulative = -8.15316e-08
DICPCG:  Solving for p_rgh, Initial residual = 3.97518e-05, Final residual = 6.84072e-09, No Iterations 29
diagonal:  Solving for rho, Initial residual = 0, Final residual = 0, No Iterations 0
time step continuity errors : sum local = 1.07222e-11, global = -1.07222e-11, cumulative = -8.15423e-08
DILUPBiCGStab:  Solving for epsilon, Initial residual = 2.65624e-06, Final residual = 1.98596e-11, No Iterations 1
DILUPBiCGStab:  Solving for k, Initial residual = 4.40183e-06, Final residual = 3.19085e-11, No Iterations 1
ExecutionTime = 0.02 s  ClockTime = 0 s

Courant Number mean: 0.00431431 max: 0.0176833
Time = 710.05

diagonal:  Solving for rho, Initial residual = 0, Final residual = 0, No Iterations 0
DILUPBiCGStab:  Solving for Ux, Initial residual = 3.21583e-05, Final residual = 1.30233e-10, No Iterations 1
DILUPBiCGStab:  Solving for Uy, Initial residual = 1.36104e-05, Final residual = 6.87305e-11, No Iterations 1
DILUPBiCGStab:  Solving for h, Initial residual = 5.03548e-05, Final residual = 2.0754e-10, No Iterations 1
DICPCG:  Solving for p_rgh, Initial residual = 0.00261038, Final residual = 2.33162e-05, No Iterations 21
diagonal:  Solving for rho, Initial residual = 0, Final residual = 0, No Iterations 0
time step continuity errors : sum local = 7.98466e-10, global = 3.28902e-12, cumulative = -8.15391e-08
DICPCG:  Solving for p_rgh, Initial residual = 2.67212e-05, Final residual = 5.36163e-09, No Iterations 29
diagonal:  Solving for rho, Initial residual = 0, Final residual = 0, No Iterations 0
time step continuity errors : sum local = 9.96745e-12, global = -9.96745e-12, cumulative = -8.1549e-08
DILUPBiCGStab:  Solving for epsilon, Initial residual = 2.64892e-06, Final residual = 1.97243e-11, No Iterations 1
DILUPBiCGStab:  Solving for k, Initial residual = 4.38861e-06, Final residual = 3.17336e-11, No Iterations 1
ExecutionTime = 0.02 s  ClockTime = 0 s

Courant Number mean: 0.0043143 max: 0.0176822
Time = 710.06

diagonal:  Solving for rho, Initial residual = 0, Final residual = 0, No Iterations 0
DILUPBiCGStab:  Solving for Ux, Initial residual = 2.79049e-05, Final residual = 9.78029e-11, No Iterations 1
DILUPBiCGStab:  Solving for Uy, Initial residual = 1.63393e-05, Final residual = 8.49601e-11, No Iterations 1
DILUPBiCGStab:  Solving for h, Initial residual = 4.70716e-05, Final residual = 1.77005e-10, No Iterations 1
DICPCG:  Solving for p_rgh, Initial residual = 0.0019934, Final residual = 1.40219e-05, No Iterations 21
diagonal:  Solving for rho, Initial residual = 0, Final residual = 0, No Iterations 0
time step continuity errors : sum local = 4.76535e-10, global = 6.34186e-12, cumulative = -8.15427e-08
DICPCG:  Solving for p_rgh, Initial residual = 1.65398e-05, Final residual = 6.53721e-09, No Iterations 27
diagonal:  Solving for rho, Initial residual = 0, Final residual = 0, No Iterations 0
time step continuity errors : sum local = 7.48026e-12, global = -7.47712e-12, cumulative = -8.15502e-08
DILUPBiCGStab:  Solving for epsilon, Initial residual = 2.64034e-06, Final residual = 1.95857e-11, No Iterations 1
DILUPBiCGStab:  Solving for k, Initial residual = 4.37111e-06, Final residual = 3.15883e-11, No Iterations 1
ExecutionTime = 0.02 s  ClockTime = 0 s

Courant Number mean: 0.00431428 max: 0.0176807
Time = 710.07

diagonal:  Solving for rho, Initial residual = 0, Final residual = 0, No Iterations 0
DILUPBiCGStab:  Solving for Ux, Initial residual = 5.18435e-05, Final residual = 2.07141e-10, No Iterations 1
DILUPBiCGStab:  Solving for Uy, Initial residual = 1.99689e-05, Final residual = 1.03616e-10, No Iterations 1
DILUPBiCGStab:  Solving for h, Initial residual = 4.06099e-05, Final residual = 1.53629e-10, No Iterations 1
DICPCG:  Solving for p_rgh, Initial residual = 0.00116685, Final residual = 7.99484e-06, No Iterations 21
diagonal:  Solving for rho, Initial residual = 0, Final residual = 0, No Iterations 0
time step continuity errors : sum local = 2.69907e-10, global = 5.94795e-12, cumulative = -8.15442e-08
DICPCG:  Solving for p_rgh, Initial residual = 9.02885e-06, Final residual = 7.81225e-09, No Iterations 25
diagonal:  Solving for rho, Initial residual = 0, Final residual = 0, No Iterations 0
time step continuity errors : sum local = 4.08906e-12, global = -4.07406e-12, cumulative = -8.15483e-08
DILUPBiCGStab:  Solving for epsilon, Initial residual = 2.63098e-06, Final residual = 1.94061e-11, No Iterations 1
DILUPBiCGStab:  Solving for k, Initial residual = 4.3508e-06, Final residual = 3.13827e-11, No Iterations 1
ExecutionTime = 0.03 s  ClockTime = 0 s

Courant Number mean: 0.00431424 max: 0.0176788
Time = 710.08

diagonal:  Solving for rho, Initial residual = 0, Final residual = 0, No Iterations 0
DILUPBiCGStab:  Solving for Ux, Initial residual = 6.06182e-05, Final residual = 2.431e-10, No Iterations 1
DILUPBiCGStab:  Solving for Uy, Initial residual = 2.49551e-05, Final residual = 1.30041e-10, No Iterations 1
DILUPBiCGStab:  Solving for h, Initial residual = 3.20703e-05, Final residual = 1.27655e-10, No Iterations 1
DICPCG:  Solving for p_rgh, Initial residual = 0.000364477, Final residual = 2.04432e-06, No Iterations 23
diagonal:  Solving for rho, Initial residual = 0, Final residual = 0, No Iterations 0
time step continuity errors : sum local = 6.87162e-11, global = 3.60854e-12, cumulative = -8.15447e-08
DICPCG:  Solving for p_rgh, Initial residual = 3.03669e-06, Final residual = 7.63408e-09, No Iterations 24
diagonal:  Solving for rho, Initial residual = 0, Final residual = 0, No Iterations 0
time step continuity errors : sum local = 5.26679e-13, global = -4.2999e-13, cumulative = -8.15451e-08
DILUPBiCGStab:  Solving for epsilon, Initial residual = 2.62179e-06, Final residual = 1.92737e-11, No Iterations 1
DILUPBiCGStab:  Solving for k, Initial residual = 4.33158e-06, Final residual = 3.12156e-11, No Iterations 1
ExecutionTime = 0.03 s  ClockTime = 0 s

Courant Number mean: 0.0043142 max: 0.0176769
Time = 710.09

diagonal:  Solving for rho, Initial residual = 0, Final residual = 0, No Iterations 0
DILUPBiCGStab:  Solving for Ux, Initial residual = 5.73052e-05, Final residual = 2.31597e-10, No Iterations 1
DILUPBiCGStab:  Solving for Uy, Initial residual = 2.60117e-05, Final residual = 1.37251e-10, No Iterations 1
DILUPBiCGStab:  Solving for h, Initial residual = 2.3073e-05, Final residual = 9.84185e-11, No Iterations 1
DICPCG:  Solving for p_rgh, Initial residual = 0.000786572, Final residual = 6.24803e-06, No Iterations 20
diagonal:  Solving for rho, Initial residual = 0, Final residual = 0, No Iterations 0
time step continuity errors : sum local = 2.1049e-10, global = 3.79653e-14, cumulative = -8.15451e-08
DICPCG:  Solving for p_rgh, Initial residual = 7.72123e-06, Final residual = 6.59958e-09, No Iterations 27
diagonal:  Solving for rho, Initial residual = 0, Final residual = 0, No Iterations 0
time step continuity errors : sum local = 2.85066e-12, global = 2.84034e-12, cumulative = -8.15422e-08
DILUPBiCGStab:  Solving for epsilon, Initial residual = 2.62498e-06, Final residual = 1.92209e-11, No Iterations 1
DILUPBiCGStab:  Solving for k, Initial residual = 4.32236e-06, Final residual = 3.11884e-11, No Iterations 1
ExecutionTime = 0.03 s  ClockTime = 0 s

Courant Number mean: 0.00431416 max: 0.0176753
Time = 710.1

diagonal:  Solving for rho, Initial residual = 0, Final residual = 0, No Iterations 0
DILUPBiCGStab:  Solving for Ux, Initial residual = 4.64257e-05, Final residual = 1.91208e-10, No Iterations 1
DILUPBiCGStab:  Solving for Uy, Initial residual = 2.23469e-05, Final residual = 1.1824e-10, No Iterations 1
DILUPBiCGStab:  Solving for h, Initial residual = 1.56293e-05, Final residual = 7.45464e-11, No Iterations 1
DICPCG:  Solving for p_rgh, Initial residual = 0.00130155, Final residual = 9.12309e-06, No Iterations 20
diagonal:  Solving for rho, Initial residual = 0, Final residual = 0, No Iterations 0
time step continuity errors : sum local = 3.08336e-10, global = 3.38132e-12, cumulative = -8.15388e-08
DICPCG:  Solving for p_rgh, Initial residual = 1.1935e-05, Final residual = 4.26524e-09, No Iterations 28
diagonal:  Solving for rho, Initial residual = 0, Final residual = 0, No Iterations 0
time step continuity errors : sum local = 5.27522e-12, global = 5.27341e-12, cumulative = -8.15336e-08
DILUPBiCGStab:  Solving for epsilon, Initial residual = 2.63731e-06, Final residual = 1.92289e-11, No Iterations 1
DILUPBiCGStab:  Solving for k, Initial residual = 4.32485e-06, Final residual = 3.12057e-11, No Iterations 1
ExecutionTime = 0.03 s  ClockTime = 0 s

Courant Number mean: 0.00431414 max: 0.0176742
Time = 710.11

diagonal:  Solving for rho, Initial residual = 0, Final residual = 0, No Iterations 0
DILUPBiCGStab:  Solving for Ux, Initial residual = 3.11041e-05, Final residual = 1.29801e-10, No Iterations 1
DILUPBiCGStab:  Solving for Uy, Initial residual = 1.54805e-05, Final residual = 8.14513e-11, No Iterations 1
DILUPBiCGStab:  Solving for h, Initial residual = 1.1286e-05, Final residual = 6.26137e-11, No Iterations 1
DICPCG:  Solving for p_rgh, Initial residual = 0.00166026, Final residual = 1.16251e-05, No Iterations 20
diagonal:  Solving for rho, Initial residual = 0, Final residual = 0, No Iterations 0
time step continuity errors : sum local = 3.94529e-10, global = 8.30119e-12, cumulative = -8.15253e-08
DICPCG:  Solving for p_rgh, Initial residual = 1.43942e-05, Final residual = 6.21808e-09, No Iterations 28
diagonal:  Solving for rho, Initial residual = 0, Final residual = 0, No Iterations 0
time step continuity errors : sum local = 6.5938e-12, global = 6.59171e-12, cumulative = -8.15187e-08
DILUPBiCGStab:  Solving for epsilon, Initial residual = 2.64212e-06, Final residual = 1.92391e-11, No Iterations 1
DILUPBiCGStab:  Solving for k, Initial residual = 4.32598e-06, Final residual = 3.1214e-11, No Iterations 1
ExecutionTime = 0.03 s  ClockTime = 0 s

Courant Number mean: 0.00431413 max: 0.0176738
Time = 710.12

diagonal:  Solving for rho, Initial residual = 0, Final residual = 0, No Iterations 0
DILUPBiCGStab:  Solving for Ux, Initial residual = 1.33437e-05, Final residual = 5.70447e-11, No Iterations 1
DILUPBiCGStab:  Solving for Uy, Initial residual = 7.22735e-06, Final residual = 3.68005e-11, No Iterations 1
DILUPBiCGStab:  Solving for h, Initial residual = 9.68542e-06, Final residual = 5.85229e-11, No Iterations 1
DICPCG:  Solving for p_rgh, Initial residual = 0.00173302, Final residual = 1.36798e-05, No Iterations 20
diagonal:  Solving for rho, Initial residual = 0, Final residual = 0, No Iterations 0
time step continuity errors : sum local = 4.66593e-10, global = 8.93642e-12, cumulative = -8.15097e-08
DICPCG:  Solving for p_rgh, Initial residual = 1.60636e-05, Final residual = 8.49639e-09, No Iterations 26
diagonal:  Solving for rho, Initial residual = 0, Final residual = 0, No Iterations 0
time step continuity errors : sum local = 6.72652e-12, global = 6.71743e-12, cumulative = -8.1503e-08
DILUPBiCGStab:  Solving for epsilon, Initial residual = 2.63966e-06, Final residual = 1.92331e-11, No Iterations 1
DILUPBiCGStab:  Solving for k, Initial residual = 4.32581e-06, Final residual = 3.12137e-11, No Iterations 1
ExecutionTime = 0.04 s  ClockTime = 0 s

Courant Number mean: 0.00431413 max: 0.017674
Time = 710.13

diagonal:  Solving for rho, Initial residual = 0, Final residual = 0, No Iterations 0
DILUPBiCGStab:  Solving for Ux, Initial residual = 5.17937e-06, Final residual = 2.0454e-11, No Iterations 1
DILUPBiCGStab:  Solving for Uy, Initial residual = 4.44088e-06, Final residual = 2.21987e-11, No Iterations 1
DILUPBiCGStab:  Solving for h, Initial residual = 9.50305e-06, Final residual = 5.76599e-11, No Iterations 1
DICPCG:  Solving for p_rgh, Initial residual = 0.0015276, Final residual = 1.382e-05, No Iterations 20
diagonal:  Solving for rho, Initial residual = 0, Final residual = 0, No Iterations 0
time step continuity errors : sum local = 4.73769e-10, global = 8.16695e-12, cumulative = -8.14949e-08
DICPCG:  Solving for p_rgh, Initial residual = 1.56251e-05, Final residual = 6.23719e-09, No Iterations 26
diagonal:  Solving for rho, Initial residual = 0, Final residual = 0, No Iterations 0
time step continuity errors : sum local = 5.8029e-12, global = 5.79501e-12, cumulative = -8.14891e-08
DILUPBiCGStab:  Solving for epsilon, Initial residual = 2.63125e-06, Final residual = 1.92124e-11, No Iterations 1
DILUPBiCGStab:  Solving for k, Initial residual = 4.32456e-06, Final residual = 3.12039e-11, No Iterations 1
ExecutionTime = 0.04 s  ClockTime = 0 s

Courant Number mean: 0.00431415 max: 0.0176747
Time = 710.14

diagonal:  Solving for rho, Initial residual = 0, Final residual = 0, No Iterations 0
DILUPBiCGStab:  Solving for Ux, Initial residual = 2.04804e-05, Final residual = 8.17762e-11, No Iterations 1
DILUPBiCGStab:  Solving for Uy, Initial residual = 9.82386e-06, Final residual = 5.09671e-11, No Iterations 1
DILUPBiCGStab:  Solving for h, Initial residual = 1.04454e-05, Final residual = 5.94869e-11, No Iterations 1
DICPCG:  Solving for p_rgh, Initial residual = 0.00111564, Final residual = 1.10061e-05, No Iterations 16
diagonal:  Solving for rho, Initial residual = 0, Final residual = 0, No Iterations 0
time step continuity errors : sum local = 3.78768e-10, global = 1.78769e-11, cumulative = -8.14712e-08
DICPCG:  Solving for p_rgh, Initial residual = 1.21039e-05, Final residual = 9.94305e-09, No Iterations 27
diagonal:  Solving for rho, Initial residual = 0, Final residual = 0, No Iterations 0
time step continuity errors : sum local = 4.09754e-12, global = 4.0833e-12, cumulative = -8.14671e-08
DILUPBiCGStab:  Solving for epsilon, Initial residual = 2.62014e-06, Final residual = 1.92116e-11, No Iterations 1
DILUPBiCGStab:  Solving for k, Initial residual = 4.32403e-06, Final residual = 3.11838e-11, No Iterations 1
ExecutionTime = 0.04 s  ClockTime = 0 s

Courant Number mean: 0.00431417 max: 0.0176758
Time = 710.15

diagonal:  Solving for rho, Initial residual = 0, Final residual = 0, No Iterations 0
DILUPBiCGStab:  Solving for Ux, Initial residual = 3.10606e-05, Final residual = 1.2418e-10, No Iterations 1
DILUPBiCGStab:  Solving for Uy, Initial residual = 1.44807e-05, Final residual = 7.49364e-11, No Iterations 1
DILUPBiCGStab:  Solving for h, Initial residual = 1.30739e-05, Final residual = 6.54574e-11, No Iterations 1
DICPCG:  Solving for p_rgh, Initial residual = 0.000587435, Final residual = 4.836e-06, No Iterations 21
diagonal:  Solving for rho, Initial residual = 0, Final residual = 0, No Iterations 0
time step continuity errors : sum local = 1.67337e-10, global = 2.73493e-13, cumulative = -8.14668e-08
DICPCG:  Solving for p_rgh, Initial residual = 5.31625e-06, Final residual = 5.35389e-09, No Iterations 25
diagonal:  Solving for rho, Initial residual = 0, Final residual = 0, No Iterations 0
time step continuity errors : sum local = 1.9865e-12, global = 1.9703e-12, cumulative = -8.14649e-08
DILUPBiCGStab:  Solving for epsilon, Initial residual = 2.62412e-06, Final residual = 1.92465e-11, No Iterations 1
DILUPBiCGStab:  Solving for k, Initial residual = 4.33443e-06, Final residual = 3.12146e-11, No Iterations 1
ExecutionTime = 0.04 s  ClockTime = 0 s

Courant Number mean: 0.0043142 max: 0.0176771
Time = 710.16

diagonal:  Solving for rho, Initial residual = 0, Final residual = 0, No Iterations 0
DILUPBiCGStab:  Solving for Ux, Initial residual = 3.54624e-05, Final residual = 1.42092e-10, No Iterations 1
DILUPBiCGStab:  Solving for Uy, Initial residual = 1.66683e-05, Final residual = 8.58501e-11, No Iterations 1
DILUPBiCGStab:  Solving for h, Initial residual = 1.74484e-05, Final residual = 7.8001e-11, No Iterations 1
DICPCG:  Solving for p_rgh, Initial residual = 0.00016358, Final residual = 1.51085e-06, No Iterations 22
diagonal:  Solving for rho, Initial residual = 0, Final residual = 0, No Iterations 0
time step continuity errors : sum local = 5.24005e-11, global = 2.01539e-12, cumulative = -8.14628e-08
DICPCG:  Solving for p_rgh, Initial residual = 1.94656e-06, Final residual = 8.32074e-09, No Iterations 22
diagonal:  Solving for rho, Initial residual = 0, Final residual = 0, No Iterations 0
time step continuity errors : sum local = 4.21464e-13, global = -1.95545e-13, cumulative = -8.1463e-08
DILUPBiCGStab:  Solving for epsilon, Initial residual = 2.62979e-06, Final residual = 1.93241e-11, No Iterations 1
DILUPBiCGStab:  Solving for k, Initial residual = 4.3451e-06, Final residual = 3.12912e-11, No Iterations 1
ExecutionTime = 0.05 s  ClockTime = 0 s

Courant Number mean: 0.00431423 max: 0.0176782
Time = 710.17

diagonal:  Solving for rho, Initial residual = 0, Final residual = 0, No Iterations 0
DILUPBiCGStab:  Solving for Ux, Initial residual = 3.37592e-05, Final residual = 1.35698e-10, No Iterations 1
DILUPBiCGStab:  Solving for Uy, Initial residual = 1.62388e-05, Final residual = 8.32814e-11, No Iterations 1
DILUPBiCGStab:  Solving for h, Initial residual = 2.2447e-05, Final residual = 9.35138e-11, No Iterations 1
DICPCG:  Solving for p_rgh, Initial residual = 0.000539115, Final residual = 5.05227e-06, No Iterations 18
diagonal:  Solving for rho, Initial residual = 0, Final residual = 0, No Iterations 0
time step continuity errors : sum local = 1.75025e-10, global = -8.79752e-14, cumulative = -8.14631e-08
DICPCG:  Solving for p_rgh, Initial residual = 6.36437e-06, Final residual = 8.77935e-09, No Iterations 26
diagonal:  Solving for rho, Initial residual = 0, Final residual = 0, No Iterations 0
time step continuity errors : sum local = 2.0979e-12, global = -2.07173e-12, cumulative = -8.14652e-08
DILUPBiCGStab:  Solving for epsilon, Initial residual = 2.63429e-06, Final residual = 1.94015e-11, No Iterations 1
DILUPBiCGStab:  Solving for k, Initial residual = 4.35443e-06, Final residual = 3.13852e-11, No Iterations 1
ExecutionTime = 0.05 s  ClockTime = 0 s

Courant Number mean: 0.00431425 max: 0.0176792
Time = 710.18

diagonal:  Solving for rho, Initial residual = 0, Final residual = 0, No Iterations 0
DILUPBiCGStab:  Solving for Ux, Initial residual = 2.70594e-05, Final residual = 1.09202e-10, No Iterations 1
DILUPBiCGStab:  Solving for Uy, Initial residual = 1.35834e-05, Final residual = 6.90807e-11, No Iterations 1
DILUPBiCGStab:  Solving for h, Initial residual = 2.69942e-05, Final residual = 1.07944e-10, No Iterations 1
DICPCG:  Solving for p_rgh, Initial residual = 0.000821896, Final residual = 5.37113e-06, No Iterations 20
diagonal:  Solving for rho, Initial residual = 0, Final residual = 0, No Iterations 0
time step continuity errors : sum local = 1.85087e-10, global = 6.07855e-13, cumulative = -8.14646e-08
DICPCG:  Solving for p_rgh, Initial residual = 7.09095e-06, Final residual = 8.34806e-09, No Iterations 26
diagonal:  Solving for rho, Initial residual = 0, Final residual = 0, No Iterations 0
time step continuity errors : sum local = 3.4094e-12, global = -3.38991e-12, cumulative = -8.1468e-08
DILUPBiCGStab:  Solving for epsilon, Initial residual = 2.63709e-06, Final residual = 1.94569e-11, No Iterations 1
DILUPBiCGStab:  Solving for k, Initial residual = 4.36013e-06, Final residual = 3.14442e-11, No Iterations 1
ExecutionTime = 0.05 s  ClockTime = 0 s

Courant Number mean: 0.00431427 max: 0.0176798
Time = 710.19

diagonal:  Solving for rho, Initial residual = 0, Final residual = 0, No Iterations 0
DILUPBiCGStab:  Solving for Ux, Initial residual = 1.70771e-05, Final residual = 6.93798e-11, No Iterations 1
DILUPBiCGStab:  Solving for Uy, Initial residual = 9.43814e-06, Final residual = 4.70967e-11, No Iterations 1
DILUPBiCGStab:  Solving for h, Initial residual = 3.03047e-05, Final residual = 1.19105e-10, No Iterations 1
DICPCG:  Solving for p_rgh, Initial residual = 0.00100734, Final residual = 7.74239e-06, No Iterations 20
diagonal:  Solving for rho, Initial residual = 0, Final residual = 0, No Iterations 0
time step continuity errors : sum local = 2.66061e-10, global = -4.77099e-13, cumulative = -8.14685e-08
DICPCG:  Solving for p_rgh, Initial residual = 9.41364e-06, Final residual = 8.73843e-09, No Iterations 26
diagonal:  Solving for rho, Initial residual = 0, Final residual = 0, No Iterations 0
time step continuity errors : sum local = 4.05526e-12, global = -4.0355e-12, cumulative = -8.14725e-08
DILUPBiCGStab:  Solving for epsilon, Initial residual = 2.638e-06, Final residual = 1.94723e-11, No Iterations 1
DILUPBiCGStab:  Solving for k, Initial residual = 4.36177e-06, Final residual = 3.14643e-11, No Iterations 1
ExecutionTime = 0.05 s  ClockTime = 0 s

Courant Number mean: 0.00431427 max: 0.01768
Time = 710.2

diagonal:  Solving for rho, Initial residual = 0, Final residual = 0, No Iterations 0
DILUPBiCGStab:  Solving for Ux, Initial residual = 5.79594e-06, Final residual = 2.41844e-11, No Iterations 1
DILUPBiCGStab:  Solving for Uy, Initial residual = 4.75988e-06, Final residual = 2.29384e-11, No Iterations 1
DILUPBiCGStab:  Solving for h, Initial residual = 3.18942e-05, Final residual = 1.24613e-10, No Iterations 1
DICPCG:  Solving for p_rgh, Initial residual = 0.00102223, Final residual = 8.80451e-06, No Iterations 20
diagonal:  Solving for rho, Initial residual = 0, Final residual = 0, No Iterations 0
time step continuity errors : sum local = 3.01646e-10, global = -9.26542e-13, cumulative = -8.14734e-08
DICPCG:  Solving for p_rgh, Initial residual = 1.02364e-05, Final residual = 6.30957e-09, No Iterations 26
diagonal:  Solving for rho, Initial residual = 0, Final residual = 0, No Iterations 0
time step continuity errors : sum local = 3.97833e-12, global = -3.96795e-12, cumulative = -8.14774e-08
DILUPBiCGStab:  Solving for epsilon, Initial residual = 2.63707e-06, Final residual = 1.94502e-11, No Iterations 1
DILUPBiCGStab:  Solving for k, Initial residual = 4.35958e-06, Final residual = 3.14396e-11, No Iterations 1
ExecutionTime = 0.06 s  ClockTime = 0 s

Courant Number mean: 0.00431427 max: 0.0176799
Time = 710.21

diagonal:  Solving for rho, Initial residual = 0, Final residual = 0, No Iterations 0
DILUPBiCGStab:  Solving for Ux, Initial residual = 5.41646e-06, Final residual = 2.46859e-11, No Iterations 1
DILUPBiCGStab:  Solving for Uy, Initial residual = 2.98993e-06, Final residual = 1.64451e-11, No Iterations 1
DILUPBiCGStab:  Solving for h, Initial residual = 3.1718e-05, Final residual = 1.23917e-10, No Iterations 1
DICPCG:  Solving for p_rgh, Initial residual = 0.000877099, Final residual = 7.1165e-06, No Iterations 18
diagonal:  Solving for rho, Initial residual = 0, Final residual = 0, No Iterations 0
time step continuity errors : sum local = 2.43519e-10, global = -8.52414e-12, cumulative = -8.14859e-08
DICPCG:  Solving for p_rgh, Initial residual = 7.96861e-06, Final residual = 7.06458e-09, No Iterations 27
diagonal:  Solving for rho, Initial residual = 0, Final residual = 0, No Iterations 0
time step continuity errors : sum local = 3.30903e-12, global = -3.29721e-12, cumulative = -8.14892e-08
DILUPBiCGStab:  Solving for epsilon, Initial residual = 2.63476e-06, Final residual = 1.93982e-11, No Iterations 1
DILUPBiCGStab:  Solving for k, Initial residual = 4.3544e-06, Final residual = 3.13853e-11, No Iterations 1
ExecutionTime = 0.06 s  ClockTime = 0 s

Courant Number mean: 0.00431426 max: 0.0176794
Time = 710.22

diagonal:  Solving for rho, Initial residual = 0, Final residual = 0, No Iterations 0
DILUPBiCGStab:  Solving for Ux, Initial residual = 1.39801e-05, Final residual = 5.80893e-11, No Iterations 1
DILUPBiCGStab:  Solving for Uy, Initial residual = 6.11713e-06, Final residual = 3.43187e-11, No Iterations 1
DILUPBiCGStab:  Solving for h, Initial residual = 3.00143e-05, Final residual = 1.17822e-10, No Iterations 1
DICPCG:  Solving for p_rgh, Initial residual = 0.000612994, Final residual = 4.43261e-06, No Iterations 16
diagonal:  Solving for rho, Initial residual = 0, Final residual = 0, No Iterations 0
time step continuity errors : sum local = 1.51592e-10, global = 6.95552e-12, cumulative = -8.14823e-08
DICPCG:  Solving for p_rgh, Initial residual = 5.14699e-06, Final residual = 6.34247e-09, No Iterations 25
diagonal:  Solving for rho, Initial residual = 0, Final residual = 0, No Iterations 0
time step continuity errors : sum local = 2.21723e-12, global = -2.20339e-12, cumulative = -8.14845e-08
DILUPBiCGStab:  Solving for epsilon, Initial residual = 2.63158e-06, Final residual = 1.93386e-11, No Iterations 1
DILUPBiCGStab:  Solving for k, Initial residual = 4.34738e-06, Final residual = 3.1312e-11, No Iterations 1
ExecutionTime = 0.06 s  ClockTime = 0 s

Courant Number mean: 0.00431425 max: 0.0176788
Time = 710.23

diagonal:  Solving for rho, Initial residual = 0, Final residual = 0, No Iterations 0
DILUPBiCGStab:  Solving for Ux, Initial residual = 1.94387e-05, Final residual = 7.9936e-11, No Iterations 1
DILUPBiCGStab:  Solving for Uy, Initial residual = 8.69971e-06, Final residual = 4.75085e-11, No Iterations 1
DILUPBiCGStab:  Solving for h, Initial residual = 2.72371e-05, Final residual = 1.08123e-10, No Iterations 1
DICPCG:  Solving for p_rgh, Initial residual = 0.000285141, Final residual = 2.67255e-06, No Iterations 21
diagonal:  Solving for rho, Initial residual = 0, Final residual = 0, No Iterations 0
time step continuity errors : sum local = 9.05311e-11, global = 3.55361e-12, cumulative = -8.14809e-08
DICPCG:  Solving for p_rgh, Initial residual = 2.88764e-06, Final residual = 5.04087e-09, No Iterations 24
diagonal:  Solving for rho, Initial residual = 0, Final residual = 0, No Iterations 0
time step continuity errors : sum local = 9.25259e-13, global = -8.99071e-13, cumulative = -8.14818e-08
DILUPBiCGStab:  Solving for epsilon, Initial residual = 2.62815e-06, Final residual = 1.92866e-11, No Iterations 1
DILUPBiCGStab:  Solving for k, Initial residual = 4.33997e-06, Final residual = 3.12472e-11, No Iterations 1
ExecutionTime = 0.06 s  ClockTime = 0 s

Courant Number mean: 0.00431424 max: 0.0176781
Time = 710.24

diagonal:  Solving for rho, Initial residual = 0, Final residual = 0, No Iterations 0
DILUPBiCGStab:  Solving for Ux, Initial residual = 2.12369e-05, Final residual = 8.73138e-11, No Iterations 1
DILUPBiCGStab:  Solving for Uy, Initial residual = 9.68594e-06, Final residual = 5.23568e-11, No Iterations 1
DILUPBiCGStab:  Solving for h, Initial residual = 2.39695e-05, Final residual = 9.69371e-11, No Iterations 1
DICPCG:  Solving for p_rgh, Initial residual = 0.000152105, Final residual = 9.17423e-07, No Iterations 22
diagonal:  Solving for rho, Initial residual = 0, Final residual = 0, No Iterations 0
time step continuity errors : sum local = 3.15775e-11, global = 2.74102e-12, cumulative = -8.14791e-08
DICPCG:  Solving for p_rgh, Initial residual = 1.31652e-06, Final residual = 6.16195e-09, No Iterations 21
diagonal:  Solving for rho, Initial residual = 0, Final residual = 0, No Iterations 0
time step continuity errors : sum local = 4.79817e-13, global = 3.82656e-13, cumulative = -8.14787e-08
DILUPBiCGStab:  Solving for epsilon, Initial residual = 2.62505e-06, Final residual = 1.92385e-11, No Iterations 1
DILUPBiCGStab:  Solving for k, Initial residual = 4.33415e-06, Final residual = 3.12035e-11, No Iterations 1
ExecutionTime = 0.06 s  ClockTime = 0 s

Courant Number mean: 0.00431423 max: 0.0176774
Time = 710.25

diagonal:  Solving for rho, Initial residual = 0, Final residual = 0, No Iterations 0
DILUPBiCGStab:  Solving for Ux, Initial residual = 1.95385e-05, Final residual = 8.06688e-11, No Iterations 1
DILUPBiCGStab:  Solving for Uy, Initial residual = 9.10584e-06, Final residual = 4.89761e-11, No Iterations 1
DILUPBiCGStab:  Solving for h, Initial residual = 2.08413e-05, Final residual = 8.67386e-11, No Iterations 1
DICPCG:  Solving for p_rgh, Initial residual = 0.000370802, Final residual = 2.51041e-06, No Iterations 20
diagonal:  Solving for rho, Initial residual = 0, Final residual = 0, No Iterations 0
time step continuity errors : sum local = 8.52641e-11, global = 2.51238e-12, cumulative = -8.14762e-08
DICPCG:  Solving for p_rgh, Initial residual = 3.30559e-06, Final residual = 6.99972e-09, No Iterations 24
diagonal:  Solving for rho, Initial residual = 0, Final residual = 0, No Iterations 0
time step continuity errors : sum local = 1.47094e-12, global = 1.44614e-12, cumulative = -8.14747e-08
DILUPBiCGStab:  Solving for epsilon, Initial residual = 2.62273e-06, Final residual = 1.92145e-11, No Iterations 1
DILUPBiCGStab:  Solving for k, Initial residual = 4.32993e-06, Final residual = 3.11793e-11, No Iterations 1
ExecutionTime = 0.07 s  ClockTime = 0 s

Courant Number mean: 0.00431422 max: 0.017677
Time = 710.26

diagonal:  Solving for rho, Initial residual = 0, Final residual = 0, No Iterations 0
DILUPBiCGStab:  Solving for Ux, Initial residual = 1.5037e-05, Final residual = 6.28072e-11, No Iterations 1
DILUPBiCGStab:  Solving for Uy, Initial residual = 7.25357e-06, Final residual = 3.89715e-11, No Iterations 1
DILUPBiCGStab:  Solving for h, Initial residual = 1.8316e-05, Final residual = 7.85407e-11, No Iterations 1
DICPCG:  Solving for p_rgh, Initial residual = 0.000530761, Final residual = 3.66576e-06, No Iterations 20
diagonal:  Solving for rho, Initial residual = 0, Final residual = 0, No Iterations 0
time step continuity errors : sum local = 1.25032e-10, global = 3.9918e-12, cumulative = -8.14707e-08
DICPCG:  Solving for p_rgh, Initial residual = 4.67348e-06, Final residual = 9.37542e-09, No Iterations 25
diagonal:  Solving for rho, Initial residual = 0, Final residual = 0, No Iterations 0
time step continuity errors : sum local = 2.1941e-12, global = 2.16288e-12, cumulative = -8.14686e-08
DILUPBiCGStab:  Solving for epsilon, Initial residual = 2.62147e-06, Final residual = 1.92053e-11, No Iterations 1
DILUPBiCGStab:  Solving for k, Initial residual = 4.32761e-06, Final residual = 3.117e-11, No Iterations 1
ExecutionTime = 0.07 s  ClockTime = 0 s

Courant Number mean: 0.00431421 max: 0.0176767
Time = 710.27

diagonal:  Solving for rho, Initial residual = 0, Final residual = 0, No Iterations 0
DILUPBiCGStab:  Solving for Ux, Initial residual = 8.7917e-06, Final residual = 3.81321e-11, No Iterations 1
DILUPBiCGStab:  Solving for Uy, Initial residual = 4.64957e-06, Final residual = 2.47588e-11, No Iterations 1
DILUPBiCGStab:  Solving for h, Initial residual = 1.66711e-05, Final residual = 7.31319e-11, No Iterations 1
DICPCG:  Solving for p_rgh, Initial residual = 0.000621232, Final residual = 4.91061e-06, No Iterations 20
diagonal:  Solving for rho, Initial residual = 0, Final residual = 0, No Iterations 0
time step continuity errors : sum local = 1.67857e-10, global = 4.47198e-12, cumulative = -8.14641e-08
DICPCG:  Solving for p_rgh, Initial residual = 5.87473e-06, Final residual = 5.11785e-09, No Iterations 26
diagonal:  Solving for rho, Initial residual = 0, Final residual = 0, No Iterations 0
time step continuity errors : sum local = 2.47365e-12, global = 2.46045e-12, cumulative = -8.14616e-08
DILUPBiCGStab:  Solving for epsilon, Initial residual = 2.62141e-06, Final residual = 1.92015e-11, No Iterations 1
DILUPBiCGStab:  Solving for k, Initial residual = 4.3273e-06, Final residual = 3.11695e-11, No Iterations 1
ExecutionTime = 0.07 s  ClockTime = 0 s

Courant Number mean: 0.00431421 max: 0.0176767
Time = 710.28

diagonal:  Solving for rho, Initial residual = 0, Final residual = 0, No Iterations 0
DILUPBiCGStab:  Solving for Ux, Initial residual = 2.66759e-06, Final residual = 1.30427e-11, No Iterations 1
DILUPBiCGStab:  Solving for Uy, Initial residual = 2.45009e-06, Final residual = 1.2276e-11, No Iterations 1
DILUPBiCGStab:  Solving for h, Initial residual = 1.60078e-05, Final residual = 7.07924e-11, No Iterations 1
DICPCG:  Solving for p_rgh, Initial residual = 0.000604856, Final residual = 5.28313e-06, No Iterations 20
diagonal:  Solving for rho, Initial residual = 0, Final residual = 0, No Iterations 0
time step continuity errors : sum local = 1.80988e-10, global = 4.67097e-12, cumulative = -8.1457e-08
DICPCG:  Solving for p_rgh, Initial residual = 6.08453e-06, Final residual = 8.10193e-09, No Iterations 24
diagonal:  Solving for rho, Initial residual = 0, Final residual = 0, No Iterations 0
time step continuity errors : sum local = 2.34216e-12, global = 2.32013e-12, cumulative = -8.14546e-08
DILUPBiCGStab:  Solving for epsilon, Initial residual = 2.62224e-06, Final residual = 1.92028e-11, No Iterations 1
DILUPBiCGStab:  Solving for k, Initial residual = 4.32882e-06, Final residual = 3.11742e-11, No Iterations 1
ExecutionTime = 0.07 s  ClockTime = 0 s

Courant Number mean: 0.00431422 max: 0.0176768
Time = 710.29

diagonal:  Solving for rho, Initial residual = 0, Final residual = 0, No Iterations 0
DILUPBiCGStab:  Solving for Ux, Initial residual = 4.74852e-06, Final residual = 1.83401e-11, No Iterations 1
DILUPBiCGStab:  Solving for Uy, Initial residual = 3.57751e-06, Final residual = 1.80108e-11, No Iterations 1
DILUPBiCGStab:  Solving for h, Initial residual = 1.62701e-05, Final residual = 7.14042e-11, No Iterations 1
DICPCG:  Solving for p_rgh, Initial residual = 0.000497183, Final residual = 4.861e-06, No Iterations 16
diagonal:  Solving for rho, Initial residual = 0, Final residual = 0, No Iterations 0
time step continuity errors : sum local = 1.66556e-10, global = 9.36916e-12, cumulative = -8.14453e-08
DICPCG:  Solving for p_rgh, Initial residual = 5.44522e-06, Final residual = 9.44061e-09, No Iterations 25
diagonal:  Solving for rho, Initial residual = 0, Final residual = 0, No Iterations 0
time step continuity errors : sum local = 1.91586e-12, global = 1.86452e-12, cumulative = -8.14434e-08
DILUPBiCGStab:  Solving for epsilon, Initial residual = 2.62392e-06, Final residual = 1.92081e-11, No Iterations 1
DILUPBiCGStab:  Solving for k, Initial residual = 4.33171e-06, Final residual = 3.11854e-11, No Iterations 1
ExecutionTime = 0.08 s  ClockTime = 0 s

Courant Number mean: 0.00431422 max: 0.0176772
Time = 710.3

diagonal:  Solving for rho, Initial residual = 0, Final residual = 0, No Iterations 0
DILUPBiCGStab:  Solving for Ux, Initial residual = 9.5407e-06, Final residual = 3.77768e-11, No Iterations 1
DILUPBiCGStab:  Solving for Uy, Initial residual = 5.47423e-06, Final residual = 2.76783e-11, No Iterations 1
DILUPBiCGStab:  Solving for h, Initial residual = 1.73179e-05, Final residual = 7.44789e-11, No Iterations 1
DICPCG:  Solving for p_rgh, Initial residual = 0.000326355, Final residual = 3.15469e-06, No Iterations 16
diagonal:  Solving for rho, Initial residual = 0, Final residual = 0, No Iterations 0
time step continuity errors : sum local = 1.08247e-10, global = -2.21117e-12, cumulative = -8.14456e-08
DICPCG:  Solving for p_rgh, Initial residual = 3.50406e-06, Final residual = 5.36633e-09, No Iterations 25
diagonal:  Solving for rho, Initial residual = 0, Final residual = 0, No Iterations 0
time step continuity errors : sum local = 1.18981e-12, global = 1.16248e-12, cumulative = -8.14445e-08
DILUPBiCGStab:  Solving for epsilon, Initial residual = 2.62603e-06, Final residual = 1.92305e-11, No Iterations 1
DILUPBiCGStab:  Solving for k, Initial residual = 4.33535e-06, Final residual = 3.12044e-11, No Iterations 1
ExecutionTime = 0.08 s  ClockTime = 0 s

Courant Number mean: 0.00431424 max: 0.0176776
Time = 710.31

diagonal:  Solving for rho, Initial residual = 0, Final residual = 0, No Iterations 0
DILUPBiCGStab:  Solving for Ux, Initial residual = 1.23432e-05, Final residual = 4.92232e-11, No Iterations 1
DILUPBiCGStab:  Solving for Uy, Initial residual = 6.75897e-06, Final residual = 3.41699e-11, No Iterations 1
DILUPBiCGStab:  Solving for h, Initial residual = 1.8923e-05, Final residual = 7.93123e-11, No Iterations 1
DICPCG:  Solving for p_rgh, Initial residual = 0.000128306, Final residual = 8.26688e-07, No Iterations 22
diagonal:  Solving for rho, Initial residual = 0, Final residual = 0, No Iterations 0
time step continuity errors : sum local = 2.87929e-11, global = 2.2276e-12, cumulative = -8.14422e-08
DICPCG:  Solving for p_rgh, Initial residual = 1.00125e-06, Final residual = 7.75123e-09, No Iterations 21
diagonal:  Solving for rho, Initial residual = 0, Final residual = 0, No Iterations 0
time step continuity errors : sum local = 5.05939e-13, global = 4.05233e-13, cumulative = -8.14418e-08
DILUPBiCGStab:  Solving for epsilon, Initial residual = 2.6282e-06, Final residual = 1.92594e-11, No Iterations 1
DILUPBiCGStab:  Solving for k, Initial residual = 4.33909e-06, Final residual = 3.12314e-11, No Iterations 1
ExecutionTime = 0.08 s  ClockTime = 0 s

Courant Number mean: 0.00431425 max: 0.0176781
Time = 710.32

diagonal:  Solving for rho, Initial residual = 0, Final residual = 0, No Iterations 0
DILUPBiCGStab:  Solving for Ux, Initial residual = 1.29437e-05, Final residual = 5.18135e-11, No Iterations 1
DILUPBiCGStab:  Solving for Uy, Initial residual = 7.12443e-06, Final residual = 3.59578e-11, No Iterations 1
DILUPBiCGStab:  Solving for h, Initial residual = 2.07978e-05, Final residual = 8.50745e-11, No Iterations 1
DICPCG:  Solving for p_rgh, Initial residual = 0.000122656, Final residual = 8.85742e-07, No Iterations 21
diagonal:  Solving for rho, Initial residual = 0, Final residual = 0, No Iterations 0
time step continuity errors : sum local = 3.07671e-11, global = 2.65797e-12, cumulative = -8.14392e-08
DICPCG:  Solving for p_rgh, Initial residual = 1.19456e-06, Final residual = 8.60397e-09, No Iterations 22
diagonal:  Solving for rho, Initial residual = 0, Final residual = 0, No Iterations 0
time step continuity errors : sum local = 4.98213e-13, global = -3.77667e-13, cumulative = -8.14395e-08
DILUPBiCGStab:  Solving for epsilon, Initial residual = 2.63009e-06, Final residual = 1.92848e-11, No Iterations 1
DILUPBiCGStab:  Solving for k, Initial residual = 4.34258e-06, Final residual = 3.12565e-11, No Iterations 1
ExecutionTime = 0.08 s  ClockTime = 0 s

Courant Number mean: 0.00431426 max: 0.0176785
Time = 710.33

diagonal:  Solving for rho, Initial residual = 0, Final residual = 0, No Iterations 0
DILUPBiCGStab:  Solving for Ux, Initial residual = 1.15136e-05, Final residual = 4.62317e-11, No Iterations 1
DILUPBiCGStab:  Solving for Uy, Initial residual = 6.61882e-06, Final residual = 3.32026e-11, No Iterations 1
DILUPBiCGStab:  Solving for h, Initial residual = 2.26224e-05, Final residual = 9.08247e-11, No Iterations 1
DICPCG:  Solving for p_rgh, Initial residual = 0.00024388, Final residual = 1.62352e-06, No Iterations 20
diagonal:  Solving for rho, Initial residual = 0, Final residual = 0, No Iterations 0
time step continuity errors : sum local = 5.57368e-11, global = 2.69037e-12, cumulative = -8.14369e-08
DICPCG:  Solving for p_rgh, Initial residual = 2.17021e-06, Final residual = 9.16382e-09, No Iterations 23
diagonal:  Solving for rho, Initial residual = 0, Final residual = 0, No Iterations 0
time step continuity errors : sum local = 1.03709e-12, global = -9.82675e-13, cumulative = -8.14378e-08
DILUPBiCGStab:  Solving for epsilon, Initial residual = 2.63147e-06, Final residual = 1.93029e-11, No Iterations 1
DILUPBiCGStab:  Solving for k, Initial residual = 4.34541e-06, Final residual = 3.1279e-11, No Iterations 1
ExecutionTime = 0.08 s  ClockTime = 0 s

Courant Number mean: 0.00431427 max: 0.0176789
Time = 710.34

diagonal:  Solving for rho, Initial residual = 0, Final residual = 0, No Iterations 0
DILUPBiCGStab:  Solving for Ux, Initial residual = 8.52921e-06, Final residual = 3.43713e-11, No Iterations 1
DILUPBiCGStab:  Solving for Uy, Initial residual = 5.44553e-06, Final residual = 2.69798e-11, No Iterations 1
DILUPBiCGStab:  Solving for h, Initial residual = 2.41066e-05, Final residual = 9.56518e-11, No Iterations 1
DICPCG:  Solving for p_rgh, Initial residual = 0.000334402, Final residual = 2.43646e-06, No Iterations 20
diagonal:  Solving for rho, Initial residual = 0, Final residual = 0, No Iterations 0
time step continuity errors : sum local = 8.33536e-11, global = 1.61207e-12, cumulative = -8.14362e-08
DICPCG:  Solving for p_rgh, Initial residual = 3.03232e-06, Final residual = 6.00892e-09, No Iterations 25
diagonal:  Solving for rho, Initial residual = 0, Final residual = 0, No Iterations 0
time step continuity errors : sum local = 1.38685e-12, global = -1.35912e-12, cumulative = -8.14376e-08
DILUPBiCGStab:  Solving for epsilon, Initial residual = 2.63218e-06, Final residual = 1.93118e-11, No Iterations 1
DILUPBiCGStab:  Solving for k, Initial residual = 4.34683e-06, Final residual = 3.12913e-11, No Iterations 1
ExecutionTime = 0.09 s  ClockTime = 0 s

Courant Number mean: 0.00431427 max: 0.017679
Time = 710.35

diagonal:  Solving for rho, Initial residual = 0, Final residual = 0, No Iterations 0
DILUPBiCGStab:  Solving for Ux, Initial residual = 4.66605e-06, Final residual = 1.87901e-11, No Iterations 1
DILUPBiCGStab:  Solving for Uy, Initial residual = 3.89692e-06, Final residual = 1.90539e-11, No Iterations 1
DILUPBiCGStab:  Solving for h, Initial residual = 2.50402e-05, Final residual = 9.86931e-11, No Iterations 1
DICPCG:  Solving for p_rgh, Initial residual = 0.000375449, Final residual = 3.08848e-06, No Iterations 20
diagonal:  Solving for rho, Initial residual = 0, Final residual = 0, No Iterations 0
time step continuity errors : sum local = 1.05599e-10, global = 1.35589e-12, cumulative = -8.14362e-08
DICPCG:  Solving for p_rgh, Initial residual = 3.64189e-06, Final residual = 6.37605e-09, No Iterations 25
diagonal:  Solving for rho, Initial residual = 0, Final residual = 0, No Iterations 0
time step continuity errors : sum local = 1.50321e-12, global = -1.47341e-12, cumulative = -8.14377e-08
DILUPBiCGStab:  Solving for epsilon, Initial residual = 2.6322e-06, Final residual = 1.9311e-11, No Iterations 1
DILUPBiCGStab:  Solving for k, Initial residual = 4.34678e-06, Final residual = 3.12906e-11, No Iterations 1
ExecutionTime = 0.09 s  ClockTime = 0 s

Courant Number mean: 0.00431427 max: 0.0176791
Time = 710.36

diagonal:  Solving for rho, Initial residual = 0, Final residual = 0, No Iterations 0
DILUPBiCGStab:  Solving for Ux, Initial residual = 1.99569e-06, Final residual = 9.7643e-12, No Iterations 1
DILUPBiCGStab:  Solving for Uy, Initial residual = 2.38506e-06, Final residual = 1.20318e-11, No Iterations 1
DILUPBiCGStab:  Solving for h, Initial residual = 2.53298e-05, Final residual = 9.95769e-11, No Iterations 1
DICPCG:  Solving for p_rgh, Initial residual = 0.000353753, Final residual = 3.13753e-06, No Iterations 20
diagonal:  Solving for rho, Initial residual = 0, Final residual = 0, No Iterations 0
time step continuity errors : sum local = 1.07258e-10, global = 1.27358e-12, cumulative = -8.14364e-08
DICPCG:  Solving for p_rgh, Initial residual = 3.60074e-06, Final residual = 4.94313e-09, No Iterations 24
diagonal:  Solving for rho, Initial residual = 0, Final residual = 0, No Iterations 0
time step continuity errors : sum local = 1.37098e-12, global = -1.3536e-12, cumulative = -8.14378e-08
DILUPBiCGStab:  Solving for epsilon, Initial residual = 2.63162e-06, Final residual = 1.93016e-11, No Iterations 1
DILUPBiCGStab:  Solving for k, Initial residual = 4.34546e-06, Final residual = 3.12783e-11, No Iterations 1
ExecutionTime = 0.09 s  ClockTime = 0 s

Courant Number mean: 0.00431427 max: 0.017679
Time = 710.37

diagonal:  Solving for rho, Initial residual = 0, Final residual = 0, No Iterations 0
DILUPBiCGStab:  Solving for Ux, Initial residual = 3.69848e-06, Final residual = 1.80035e-11, No Iterations 1
DILUPBiCGStab:  Solving for Uy, Initial residual = 2.29015e-06, Final residual = 1.26379e-11, No Iterations 1
DILUPBiCGStab:  Solving for h, Initial residual = 2.50082e-05, Final residual = 9.83514e-11, No Iterations 1
DICPCG:  Solving for p_rgh, Initial residual = 0.000279949, Final residual = 2.32509e-06, No Iterations 16
diagonal:  Solving for rho, Initial residual = 0, Final residual = 0, No Iterations 0
time step continuity errors : sum local = 7.99373e-11, global = 2.80919e-14, cumulative = -8.14378e-08
DICPCG:  Solving for p_rgh, Initial residual = 2.68236e-06, Final residual = 5.51134e-09, No Iterations 25
diagonal:  Solving for rho, Initial residual = 0, Final residual = 0, No Iterations 0
time step continuity errors : sum local = 1.0738e-12, global = -1.04174e-12, cumulative = -8.14388e-08
DILUPBiCGStab:  Solving for epsilon, Initial residual = 2.63061e-06, Final residual = 1.92859e-11, No Iterations 1
DILUPBiCGStab:  Solving for k, Initial residual = 4.34322e-06, Final residual = 3.12597e-11, No Iterations 1
ExecutionTime = 0.09 s  ClockTime = 0 s

Courant Number mean: 0.00431427 max: 0.0176788
Time = 710.38

diagonal:  Solving for rho, Initial residual = 0, Final residual = 0, No Iterations 0
DILUPBiCGStab:  Solving for Ux, Initial residual = 6.15644e-06, Final residual = 2.76453e-11, No Iterations 1
DILUPBiCGStab:  Solving for Uy, Initial residual = 3.13685e-06, Final residual = 1.76063e-11, No Iterations 1
DILUPBiCGStab:  Solving for h, Initial residual = 2.41989e-05, Final residual = 9.54618e-11, No Iterations 1
DICPCG:  Solving for p_rgh, Initial residual = 0.000171764, Final residual = 1.52542e-06, No Iterations 20
diagonal:  Solving for rho, Initial residual = 0, Final residual = 0, No Iterations 0
time step continuity errors : sum local = 5.15579e-11, global = 3.44328e-12, cumulative = -8.14354e-08
DICPCG:  Solving for p_rgh, Initial residual = 1.69447e-06, Final residual = 5.92693e-09, No Iterations 24
diagonal:  Solving for rho, Initial residual = 0, Final residual = 0, No Iterations 0
time step continuity errors : sum local = 6.46792e-13, global = -5.92219e-13, cumulative = -8.14359e-08
DILUPBiCGStab:  Solving for epsilon, Initial residual = 2.62937e-06, Final residual = 1.92669e-11, No Iterations 1
DILUPBiCGStab:  Solving for k, Initial residual = 4.34061e-06, Final residual = 3.12379e-11, No Iterations 1
ExecutionTime = 0.1 s  ClockTime = 0 s

Courant Number mean: 0.00431427 max: 0.0176786
Time = 710.39

diagonal:  Solving for rho, Initial residual = 0, Final residual = 0, No Iterations 0
DILUPBiCGStab:  Solving for Ux, Initial residual = 7.54555e-06, Final residual = 3.30503e-11, No Iterations 1
DILUPBiCGStab:  Solving for Uy, Initial residual = 3.74367e-06, Final residual = 2.08401e-11, No Iterations 1
DILUPBiCGStab:  Solving for h, Initial residual = 2.30856e-05, Final residual = 9.15537e-11, No Iterations 1
DICPCG:  Solving for p_rgh, Initial residual = 5.73965e-05, Final residual = 4.2921e-07, No Iterations 22
diagonal:  Solving for rho, Initial residual = 0, Final residual = 0, No Iterations 0
time step continuity errors : sum local = 1.45919e-11, global = 2.7376e-12, cumulative = -8.14332e-08
DICPCG:  Solving for p_rgh, Initial residual = 5.08038e-07, Final residual = 9.56383e-09, No Iterations 16
diagonal:  Solving for rho, Initial residual = 0, Final residual = 0, No Iterations 0
time step continuity errors : sum local = 3.84358e-13, global = -1.26189e-13, cumulative = -8.14333e-08
DILUPBiCGStab:  Solving for epsilon, Initial residual = 2.62814e-06, Final residual = 1.92476e-11, No Iterations 1
DILUPBiCGStab:  Solving for k, Initial residual = 4.33824e-06, Final residual = 3.12207e-11, No Iterations 1
ExecutionTime = 0.1 s  ClockTime = 0 s

Courant Number mean: 0.00431426 max: 0.0176784
Time = 710.4

diagonal:  Solving for rho, Initial residual = 0, Final residual = 0, No Iterations 0
DILUPBiCGStab:  Solving for Ux, Initial residual = 7.62903e-06, Final residual = 3.34112e-11, No Iterations 1
DILUPBiCGStab:  Solving for Uy, Initial residual = 3.84523e-06, Final residual = 2.12386e-11, No Iterations 1
DILUPBiCGStab:  Solving for h, Initial residual = 2.18824e-05, Final residual = 8.73596e-11, No Iterations 1
DICPCG:  Solving for p_rgh, Initial residual = 9.28563e-05, Final residual = 8.75079e-07, No Iterations 18
diagonal:  Solving for rho, Initial residual = 0, Final residual = 0, No Iterations 0
time step continuity errors : sum local = 3.00678e-11, global = 2.6275e-12, cumulative = -8.14307e-08
DICPCG:  Solving for p_rgh, Initial residual = 1.0986e-06, Final residual = 7.154e-09, No Iterations 18
diagonal:  Solving for rho, Initial residual = 0, Final residual = 0, No Iterations 0
time step continuity errors : sum local = 4.67954e-13, global = 3.57041e-13, cumulative = -8.14303e-08
DILUPBiCGStab:  Solving for epsilon, Initial residual = 2.62711e-06, Final residual = 1.9231e-11, No Iterations 1
DILUPBiCGStab:  Solving for k, Initial residual = 4.33635e-06, Final residual = 3.1206e-11, No Iterations 1
ExecutionTime = 0.1 s  ClockTime = 0 s

Courant Number mean: 0.00431426 max: 0.0176782
Time = 710.41

diagonal:  Solving for rho, Initial residual = 0, Final residual = 0, No Iterations 0
DILUPBiCGStab:  Solving for Ux, Initial residual = 6.55175e-06, Final residual = 2.92519e-11, No Iterations 1
DILUPBiCGStab:  Solving for Uy, Initial residual = 3.47821e-06, Final residual = 1.90186e-11, No Iterations 1
DILUPBiCGStab:  Solving for h, Initial residual = 2.07919e-05, Final residual = 8.35761e-11, No Iterations 1
DICPCG:  Solving for p_rgh, Initial residual = 0.000159696, Final residual = 1.06854e-06, No Iterations 20
diagonal:  Solving for rho, Initial residual = 0, Final residual = 0, No Iterations 0
time step continuity errors : sum local = 3.64639e-11, global = 2.61471e-12, cumulative = -8.14277e-08
DICPCG:  Solving for p_rgh, Initial residual = 1.42482e-06, Final residual = 9.95827e-09, No Iterations 19
diagonal:  Solving for rho, Initial residual = 0, Final residual = 0, No Iterations 0
time step continuity errors : sum local = 7.52129e-13, global = 6.28373e-13, cumulative = -8.14271e-08
DILUPBiCGStab:  Solving for epsilon, Initial residual = 2.6264e-06, Final residual = 1.92191e-11, No Iterations 1
DILUPBiCGStab:  Solving for k, Initial residual = 4.33506e-06, Final residual = 3.11957e-11, No Iterations 1
ExecutionTime = 0.1 s  ClockTime = 0 s

Courant Number mean: 0.00431426 max: 0.017678
Time = 710.42

diagonal:  Solving for rho, Initial residual = 0, Final residual = 0, No Iterations 0
DILUPBiCGStab:  Solving for Ux, Initial residual = 4.67511e-06, Final residual = 2.19354e-11, No Iterations 1
DILUPBiCGStab:  Solving for Uy, Initial residual = 2.83096e-06, Final residual = 1.50813e-11, No Iterations 1
DILUPBiCGStab:  Solving for h, Initial residual = 1.99602e-05, Final residual = 8.0651e-11, No Iterations 1
DICPCG:  Solving for p_rgh, Initial residual = 0.000210721, Final residual = 1.57751e-06, No Iterations 20
diagonal:  Solving for rho, Initial residual = 0, Final residual = 0, No Iterations 0
time step continuity errors : sum local = 5.40974e-11, global = 3.19265e-12, cumulative = -8.14239e-08
DICPCG:  Solving for p_rgh, Initial residual = 1.93743e-06, Final residual = 6.6594e-09, No Iterations 24
diagonal:  Solving for rho, Initial residual = 0, Final residual = 0, No Iterations 0
time step continuity errors : sum local = 8.94005e-13, global = 8.48346e-13, cumulative = -8.14231e-08
DILUPBiCGStab:  Solving for epsilon, Initial residual = 2.6261e-06, Final residual = 1.9213e-11, No Iterations 1
DILUPBiCGStab:  Solving for k, Initial residual = 4.33449e-06, Final residual = 3.11907e-11, No Iterations 1
ExecutionTime = 0.11 s  ClockTime = 0 s

Courant Number mean: 0.00431426 max: 0.017678
Time = 710.43

diagonal:  Solving for rho, Initial residual = 0, Final residual = 0, No Iterations 0
DILUPBiCGStab:  Solving for Ux, Initial residual = 2.78432e-06, Final residual = 1.3788e-11, No Iterations 1
DILUPBiCGStab:  Solving for Uy, Initial residual = 2.24673e-06, Final residual = 1.19013e-11, No Iterations 1
DILUPBiCGStab:  Solving for h, Initial residual = 1.94793e-05, Final residual = 7.89118e-11, No Iterations 1
DICPCG:  Solving for p_rgh, Initial residual = 0.000226674, Final residual = 1.89304e-06, No Iterations 20
diagonal:  Solving for rho, Initial residual = 0, Final residual = 0, No Iterations 0
time step continuity errors : sum local = 6.49211e-11, global = 3.31722e-12, cumulative = -8.14197e-08
DICPCG:  Solving for p_rgh, Initial residual = 2.2222e-06, Final residual = 9.30791e-09, No Iterations 23
diagonal:  Solving for rho, Initial residual = 0, Final residual = 0, No Iterations 0
time step continuity errors : sum local = 9.55637e-13, global = 8.80802e-13, cumulative = -8.14189e-08
DILUPBiCGStab:  Solving for epsilon, Initial residual = 2.6262e-06, Final residual = 1.92127e-11, No Iterations 1
DILUPBiCGStab:  Solving for k, Initial residual = 4.33464e-06, Final residual = 3.1191e-11, No Iterations 1
ExecutionTime = 0.11 s  ClockTime = 0 s

Courant Number mean: 0.00431426 max: 0.0176781
Time = 710.44

diagonal:  Solving for rho, Initial residual = 0, Final residual = 0, No Iterations 0
DILUPBiCGStab:  Solving for Ux, Initial residual = 2.00072e-06, Final residual = 9.85671e-12, No Iterations 1
DILUPBiCGStab:  Solving for Uy, Initial residual = 2.26735e-06, Final residual = 1.15864e-11, No Iterations 1
DILUPBiCGStab:  Solving for h, Initial residual = 1.9377e-05, Final residual = 7.84072e-11, No Iterations 1
DICPCG:  Solving for p_rgh, Initial residual = 0.000205738, Final residual = 1.79324e-06, No Iterations 20
diagonal:  Solving for rho, Initial residual = 0, Final residual = 0, No Iterations 0
time step continuity errors : sum local = 6.16363e-11, global = 3.35104e-12, cumulative = -8.14155e-08
DICPCG:  Solving for p_rgh, Initial residual = 2.05369e-06, Final residual = 6.06948e-09, No Iterations 23
diagonal:  Solving for rho, Initial residual = 0, Final residual = 0, No Iterations 0
time step continuity errors : sum local = 8.19929e-13, global = 7.85369e-13, cumulative = -8.14147e-08
DILUPBiCGStab:  Solving for epsilon, Initial residual = 2.62664e-06, Final residual = 1.92173e-11, No Iterations 1
DILUPBiCGStab:  Solving for k, Initial residual = 4.33538e-06, Final residual = 3.11959e-11, No Iterations 1
ExecutionTime = 0.11 s  ClockTime = 0 s

Courant Number mean: 0.00431426 max: 0.0176782
Time = 710.45

diagonal:  Solving for rho, Initial residual = 0, Final residual = 0, No Iterations 0
DILUPBiCGStab:  Solving for Ux, Initial residual = 3.04592e-06, Final residual = 1.24019e-11, No Iterations 1
DILUPBiCGStab:  Solving for Uy, Initial residual = 2.85236e-06, Final residual = 1.42625e-11, No Iterations 1
DILUPBiCGStab:  Solving for h, Initial residual = 1.96198e-05, Final residual = 7.90505e-11, No Iterations 1
DICPCG:  Solving for p_rgh, Initial residual = 0.000155709, Final residual = 1.09306e-06, No Iterations 16
diagonal:  Solving for rho, Initial residual = 0, Final residual = 0, No Iterations 0
time step continuity errors : sum local = 3.74122e-11, global = 3.03987e-12, cumulative = -8.14117e-08
DICPCG:  Solving for p_rgh, Initial residual = 1.27681e-06, Final residual = 7.20205e-09, No Iterations 22
diagonal:  Solving for rho, Initial residual = 0, Final residual = 0, No Iterations 0
time step continuity errors : sum local = 6.33353e-13, global = 5.57865e-13, cumulative = -8.14111e-08
DILUPBiCGStab:  Solving for epsilon, Initial residual = 2.6273e-06, Final residual = 1.92255e-11, No Iterations 1
DILUPBiCGStab:  Solving for k, Initial residual = 4.33652e-06, Final residual = 3.12038e-11, No Iterations 1
ExecutionTime = 0.11 s  ClockTime = 0 s

Courant Number mean: 0.00431427 max: 0.0176783
Time = 710.46

diagonal:  Solving for rho, Initial residual = 0, Final residual = 0, No Iterations 0
DILUPBiCGStab:  Solving for Ux, Initial residual = 4.24175e-06, Final residual = 1.6729e-11, No Iterations 1
DILUPBiCGStab:  Solving for Uy, Initial residual = 3.43342e-06, Final residual = 1.70343e-11, No Iterations 1
DILUPBiCGStab:  Solving for h, Initial residual = 2.01282e-05, Final residual = 8.06075e-11, No Iterations 1
DICPCG:  Solving for p_rgh, Initial residual = 8.89195e-05, Final residual = 6.89103e-07, No Iterations 21
diagonal:  Solving for rho, Initial residual = 0, Final residual = 0, No Iterations 0
time step continuity errors : sum local = 2.43939e-11, global = 2.24679e-12, cumulative = -8.14089e-08
DICPCG:  Solving for p_rgh, Initial residual = 7.85705e-07, Final residual = 7.10316e-09, No Iterations 22
diagonal:  Solving for rho, Initial residual = 0, Final residual = 0, No Iterations 0
time step continuity errors : sum local = 4.04919e-13, global = 2.88385e-13, cumulative = -8.14086e-08
DILUPBiCGStab:  Solving for epsilon, Initial residual = 2.62807e-06, Final residual = 1.92353e-11, No Iterations 1
DILUPBiCGStab:  Solving for k, Initial residual = 4.33783e-06, Final residual = 3.1213e-11, No Iterations 1
ExecutionTime = 0.11 s  ClockTime = 0 s

Courant Number mean: 0.00431427 max: 0.0176785
Time = 710.47

diagonal:  Solving for rho, Initial residual = 0, Final residual = 0, No Iterations 0
DILUPBiCGStab:  Solving for Ux, Initial residual = 4.8722e-06, Final residual = 1.92816e-11, No Iterations 1
DILUPBiCGStab:  Solving for Uy, Initial residual = 3.74285e-06, Final residual = 1.85152e-11, No Iterations 1
DILUPBiCGStab:  Solving for h, Initial residual = 2.07964e-05, Final residual = 8.27209e-11, No Iterations 1
DICPCG:  Solving for p_rgh, Initial residual = 3.30312e-05, Final residual = 2.21424e-07, No Iterations 22
diagonal:  Solving for rho, Initial residual = 0, Final residual = 0, No Iterations 0
time step continuity errors : sum local = 8.26506e-12, global = 2.53562e-12, cumulative = -8.14061e-08
DICPCG:  Solving for p_rgh, Initial residual = 2.91666e-07, Final residual = 8.68298e-09, No Iterations 18
diagonal:  Solving for rho, Initial residual = 0, Final residual = 0, No Iterations 0
time step continuity errors : sum local = 3.42081e-13, global = 1.87839e-14, cumulative = -8.1406e-08
DILUPBiCGStab:  Solving for epsilon, Initial residual = 2.62879e-06, Final residual = 1.92448e-11, No Iterations 1
DILUPBiCGStab:  Solving for k, Initial residual = 4.33918e-06, Final residual = 3.12218e-11, No Iterations 1
ExecutionTime = 0.12 s  ClockTime = 0 s

Courant Number mean: 0.00431428 max: 0.0176787
Time = 710.48

diagonal:  Solving for rho, Initial residual = 0, Final residual = 0, No Iterations 0
DILUPBiCGStab:  Solving for Ux, Initial residual = 4.76069e-06, Final residual = 1.88978e-11, No Iterations 1
DILUPBiCGStab:  Solving for Uy, Initial residual = 3.73645e-06, Final residual = 1.8429e-11, No Iterations 1
DILUPBiCGStab:  Solving for h, Initial residual = 2.15041e-05, Final residual = 8.49428e-11, No Iterations 1
DICPCG:  Solving for p_rgh, Initial residual = 6.69971e-05, Final residual = 5.31597e-07, No Iterations 18
diagonal:  Solving for rho, Initial residual = 0, Final residual = 0, No Iterations 0
time step continuity errors : sum local = 1.90272e-11, global = 2.29324e-12, cumulative = -8.14037e-08
DICPCG:  Solving for p_rgh, Initial residual = 7.28208e-07, Final residual = 7.12423e-09, No Iterations 23
diagonal:  Solving for rho, Initial residual = 0, Final residual = 0, No Iterations 0
time step continuity errors : sum local = 3.84279e-13, global = -2.37449e-13, cumulative = -8.1404e-08
DILUPBiCGStab:  Solving for epsilon, Initial residual = 2.62938e-06, Final residual = 1.92524e-11, No Iterations 1
DILUPBiCGStab:  Solving for k, Initial residual = 4.3403e-06, Final residual = 3.12287e-11, No Iterations 1
ExecutionTime = 0.12 s  ClockTime = 0 s

Courant Number mean: 0.00431428 max: 0.0176789
Time = 710.49

diagonal:  Solving for rho, Initial residual = 0, Final residual = 0, No Iterations 0
DILUPBiCGStab:  Solving for Ux, Initial residual = 4.0378e-06, Final residual = 1.61099e-11, No Iterations 1
DILUPBiCGStab:  Solving for Uy, Initial residual = 3.45525e-06, Final residual = 1.69949e-11, No Iterations 1
DILUPBiCGStab:  Solving for h, Initial residual = 2.2133e-05, Final residual = 8.69318e-11, No Iterations 1
DICPCG:  Solving for p_rgh, Initial residual = 0.000103956, Final residual = 7.33862e-07, No Iterations 20
diagonal:  Solving for rho, Initial residual = 0, Final residual = 0, No Iterations 0
time step continuity errors : sum local = 2.5096e-11, global = 2.43577e-12, cumulative = -8.14015e-08
DICPCG:  Solving for p_rgh, Initial residual = 9.39774e-07, Final residual = 8.79045e-09, No Iterations 22
diagonal:  Solving for rho, Initial residual = 0, Final residual = 0, No Iterations 0
time step continuity errors : sum local = 5.54441e-13, global = -4.29619e-13, cumulative = -8.1402e-08
DILUPBiCGStab:  Solving for epsilon, Initial residual = 2.62974e-06, Final residual = 1.92571e-11, No Iterations 1
DILUPBiCGStab:  Solving for k, Initial residual = 4.341e-06, Final residual = 3.12327e-11, No Iterations 1
ExecutionTime = 0.12 s  ClockTime = 0 s

Courant Number mean: 0.00431429 max: 0.017679
Time = 710.5

diagonal:  Solving for rho, Initial residual = 0, Final residual = 0, No Iterations 0
DILUPBiCGStab:  Solving for Ux, Initial residual = 3.02249e-06, Final residual = 1.25058e-11, No Iterations 1
DILUPBiCGStab:  Solving for Uy, Initial residual = 2.9876e-06, Final residual = 1.46733e-11, No Iterations 1
DILUPBiCGStab:  Solving for h, Initial residual = 2.25929e-05, Final residual = 8.8362e-11, No Iterations 1
DICPCG:  Solving for p_rgh, Initial residual = 0.000130599, Final residual = 1.05966e-06, No Iterations 20
diagonal:  Solving for rho, Initial residual = 0, Final residual = 0, No Iterations 0
time step continuity errors : sum local = 3.61272e-11, global = 2.1358e-12, cumulative = -8.13998e-08
DICPCG:  Solving for p_rgh, Initial residual = 1.26603e-06, Final residual = 6.77789e-09, No Iterations 23
diagonal:  Solving for rho, Initial residual = 0, Final residual = 0, No Iterations 0
time step continuity errors : sum local = 5.85279e-13, global = -5.28527e-13, cumulative = -8.14004e-08
DILUPBiCGStab:  Solving for epsilon, Initial residual = 2.62986e-06, Final residual = 1.92582e-11, No Iterations 1
DILUPBiCGStab:  Solving for k, Initial residual = 4.34122e-06, Final residual = 3.12339e-11, No Iterations 1
ExecutionTime = 0.12 s  ClockTime = 0 s

Courant Number mean: 0.00431429 max: 0.0176791
Time = 710.51

diagonal:  Solving for rho, Initial residual = 0, Final residual = 0, No Iterations 0
DILUPBiCGStab:  Solving for Ux, Initial residual = 2.17544e-06, Final residual = 1.00778e-11, No Iterations 1
DILUPBiCGStab:  Solving for Uy, Initial residual = 2.45364e-06, Final residual = 1.22215e-11, No Iterations 1
DILUPBiCGStab:  Solving for h, Initial residual = 2.28295e-05, Final residual = 8.90474e-11, No Iterations 1
DICPCG:  Solving for p_rgh, Initial residual = 0.000135197, Final residual = 1.20974e-06, No Iterations 20
diagonal:  Solving for rho, Initial residual = 0, Final residual = 0, No Iterations 0
time step continuity errors : sum local = 4.12881e-11, global = 2.08851e-12, cumulative = -8.13983e-08
DICPCG:  Solving for p_rgh, Initial residual = 1.39797e-06, Final residual = 4.18031e-09, No Iterations 23
diagonal:  Solving for rho, Initial residual = 0, Final residual = 0, No Iterations 0
time step continuity errors : sum local = 5.64571e-13, global = -5.25984e-13, cumulative = -8.13988e-08
DILUPBiCGStab:  Solving for epsilon, Initial residual = 2.62973e-06, Final residual = 1.9256e-11, No Iterations 1
DILUPBiCGStab:  Solving for k, Initial residual = 4.34097e-06, Final residual = 3.12313e-11, No Iterations 1
ExecutionTime = 0.13 s  ClockTime = 0 s

Courant Number mean: 0.00431429 max: 0.0176791
Time = 710.52

diagonal:  Solving for rho, Initial residual = 0, Final residual = 0, No Iterations 0
DILUPBiCGStab:  Solving for Ux, Initial residual = 2.01596e-06, Final residual = 1.04847e-11, No Iterations 1
DILUPBiCGStab:  Solving for Uy, Initial residual = 2.04459e-06, Final residual = 1.09458e-11, No Iterations 1
DILUPBiCGStab:  Solving for h, Initial residual = 2.28327e-05, Final residual = 8.89418e-11, No Iterations 1
DICPCG:  Solving for p_rgh, Initial residual = 0.00011857, Final residual = 1.02993e-06, No Iterations 20
diagonal:  Solving for rho, Initial residual = 0, Final residual = 0, No Iterations 0
time step continuity errors : sum local = 3.52015e-11, global = 2.07092e-12, cumulative = -8.13967e-08
DICPCG:  Solving for p_rgh, Initial residual = 1.1823e-06, Final residual = 9.35584e-09, No Iterations 22
diagonal:  Solving for rho, Initial residual = 0, Final residual = 0, No Iterations 0
time step continuity errors : sum local = 5.74036e-13, global = -4.47311e-13, cumulative = -8.13972e-08
DILUPBiCGStab:  Solving for epsilon, Initial residual = 2.62941e-06, Final residual = 1.92509e-11, No Iterations 1
DILUPBiCGStab:  Solving for k, Initial residual = 4.34035e-06, Final residual = 3.12264e-11, No Iterations 1
ExecutionTime = 0.13 s  ClockTime = 0 s

Courant Number mean: 0.00431429 max: 0.017679
Time = 710.53

diagonal:  Solving for rho, Initial residual = 0, Final residual = 0, No Iterations 0
DILUPBiCGStab:  Solving for Ux, Initial residual = 2.51775e-06, Final residual = 1.28633e-11, No Iterations 1
DILUPBiCGStab:  Solving for Uy, Initial residual = 2.01174e-06, Final residual = 1.10172e-11, No Iterations 1
DILUPBiCGStab:  Solving for h, Initial residual = 2.26298e-05, Final residual = 8.81326e-11, No Iterations 1
DICPCG:  Solving for p_rgh, Initial residual = 8.60483e-05, Final residual = 6.18799e-07, No Iterations 16
diagonal:  Solving for rho, Initial residual = 0, Final residual = 0, No Iterations 0
time step continuity errors : sum local = 2.17305e-11, global = 2.82896e-12, cumulative = -8.13944e-08
DICPCG:  Solving for p_rgh, Initial residual = 7.35513e-07, Final residual = 7.55061e-09, No Iterations 17
diagonal:  Solving for rho, Initial residual = 0, Final residual = 0, No Iterations 0
time step continuity errors : sum local = 4.56927e-13, global = -3.14291e-13, cumulative = -8.13947e-08
DILUPBiCGStab:  Solving for epsilon, Initial residual = 2.62896e-06, Final residual = 1.92441e-11, No Iterations 1
DILUPBiCGStab:  Solving for k, Initial residual = 4.33948e-06, Final residual = 3.122e-11, No Iterations 1
ExecutionTime = 0.13 s  ClockTime = 0 s

Courant Number mean: 0.00431429 max: 0.017679
Time = 710.54

diagonal:  Solving for rho, Initial residual = 0, Final residual = 0, No Iterations 0
DILUPBiCGStab:  Solving for Ux, Initial residual = 3.02761e-06, Final residual = 1.50494e-11, No Iterations 1
DILUPBiCGStab:  Solving for Uy, Initial residual = 2.14717e-06, Final residual = 1.16575e-11, No Iterations 1
DILUPBiCGStab:  Solving for h, Initial residual = 2.22766e-05, Final residual = 8.68093e-11, No Iterations 1
DICPCG:  Solving for p_rgh, Initial residual = 4.68554e-05, Final residual = 4.27401e-07, No Iterations 21
diagonal:  Solving for rho, Initial residual = 0, Final residual = 0, No Iterations 0
time step continuity errors : sum local = 1.46481e-11, global = 2.73363e-12, cumulative = -8.13919e-08
DICPCG:  Solving for p_rgh, Initial residual = 4.72041e-07, Final residual = 7.97626e-09, No Iterations 17
diagonal:  Solving for rho, Initial residual = 0, Final residual = 0, No Iterations 0
time step continuity errors : sum local = 3.3531e-13, global = -1.41459e-13, cumulative = -8.13921e-08
DILUPBiCGStab:  Solving for epsilon, Initial residual = 2.62847e-06, Final residual = 1.92365e-11, No Iterations 1
DILUPBiCGStab:  Solving for k, Initial residual = 4.33854e-06, Final residual = 3.1213e-11, No Iterations 1
ExecutionTime = 0.13 s  ClockTime = 0 s

Courant Number mean: 0.00431429 max: 0.0176789
Time = 710.55

diagonal:  Solving for rho, Initial residual = 0, Final residual = 0, No Iterations 0
DILUPBiCGStab:  Solving for Ux, Initial residual = 3.24348e-06, Final residual = 1.60018e-11, No Iterations 1
DILUPBiCGStab:  Solving for Uy, Initial residual = 2.23396e-06, Final residual = 1.2018e-11, No Iterations 1
DILUPBiCGStab:  Solving for h, Initial residual = 2.18453e-05, Final residual = 8.52192e-11, No Iterations 1
DICPCG:  Solving for p_rgh, Initial residual = 2.6523e-05, Final residual = 2.46942e-07, No Iterations 21
diagonal:  Solving for rho, Initial residual = 0, Final residual = 0, No Iterations 0
time step continuity errors : sum local = 8.97686e-12, global = 2.62525e-12, cumulative = -8.13895e-08
DICPCG:  Solving for p_rgh, Initial residual = 3.07079e-07, Final residual = 8.0743e-09, No Iterations 15
diagonal:  Solving for rho, Initial residual = 0, Final residual = 0, No Iterations 0
time step continuity errors : sum local = 3.1685e-13, global = 3.9772e-14, cumulative = -8.13894e-08
DILUPBiCGStab:  Solving for epsilon, Initial residual = 2.62801e-06, Final residual = 1.92294e-11, No Iterations 1
DILUPBiCGStab:  Solving for k, Initial residual = 4.33766e-06, Final residual = 3.12063e-11, No Iterations 1
ExecutionTime = 0.13 s  ClockTime = 0 s

Courant Number mean: 0.00431429 max: 0.0176789
Time = 710.56

diagonal:  Solving for rho, Initial residual = 0, Final residual = 0, No Iterations 0
DILUPBiCGStab:  Solving for Ux, Initial residual = 3.12706e-06, Final residual = 1.5466e-11, No Iterations 1
DILUPBiCGStab:  Solving for Uy, Initial residual = 2.22311e-06, Final residual = 1.19167e-11, No Iterations 1
DILUPBiCGStab:  Solving for h, Initial residual = 2.14112e-05, Final residual = 8.36187e-11, No Iterations 1
DICPCG:  Solving for p_rgh, Initial residual = 4.71715e-05, Final residual = 4.53326e-07, No Iterations 19
diagonal:  Solving for rho, Initial residual = 0, Final residual = 0, No Iterations 0
time step continuity errors : sum local = 1.54671e-11, global = 2.63474e-12, cumulative = -8.13868e-08
DICPCG:  Solving for p_rgh, Initial residual = 5.5266e-07, Final residual = 5.79651e-09, No Iterations 17
diagonal:  Solving for rho, Initial residual = 0, Final residual = 0, No Iterations 0
time step continuity errors : sum local = 2.96261e-13, global = 1.71604e-13, cumulative = -8.13866e-08
DILUPBiCGStab:  Solving for epsilon, Initial residual = 2.62764e-06, Final residual = 1.92235e-11, No Iterations 1
DILUPBiCGStab:  Solving for k, Initial residual = 4.33696e-06, Final residual = 3.12009e-11, No Iterations 1
ExecutionTime = 0.14 s  ClockTime = 0 s

Courant Number mean: 0.00431429 max: 0.0176788
Time = 710.57

diagonal:  Solving for rho, Initial residual = 0, Final residual = 0, No Iterations 0
DILUPBiCGStab:  Solving for Ux, Initial residual = 2.75713e-06, Final residual = 1.38178e-11, No Iterations 1
DILUPBiCGStab:  Solving for Uy, Initial residual = 2.13985e-06, Final residual = 1.14841e-11, No Iterations 1
DILUPBiCGStab:  Solving for h, Initial residual = 2.10411e-05, Final residual = 8.22381e-11, No Iterations 1
DICPCG:  Solving for p_rgh, Initial residual = 6.79397e-05, Final residual = 5.07307e-07, No Iterations 20
diagonal:  Solving for rho, Initial residual = 0, Final residual = 0, No Iterations 0
time step continuity errors : sum local = 1.74937e-11, global = 2.80142e-12, cumulative = -8.13838e-08
DICPCG:  Solving for p_rgh, Initial residual = 6.44368e-07, Final residual = 9.01094e-09, No Iterations 17
diagonal:  Solving for rho, Initial residual = 0, Final residual = 0, No Iterations 0
time step continuity errors : sum local = 4.43861e-13, global = 2.84316e-13, cumulative = -8.13835e-08
DILUPBiCGStab:  Solving for epsilon, Initial residual = 2.6274e-06, Final residual = 1.92196e-11, No Iterations 1
DILUPBiCGStab:  Solving for k, Initial residual = 4.33653e-06, Final residual = 3.11973e-11, No Iterations 1
ExecutionTime = 0.14 s  ClockTime = 0 s

Courant Number mean: 0.00431429 max: 0.0176788
Time = 710.58

diagonal:  Solving for rho, Initial residual = 0, Final residual = 0, No Iterations 0
DILUPBiCGStab:  Solving for Ux, Initial residual = 2.29495e-06, Final residual = 1.18437e-11, No Iterations 1
DILUPBiCGStab:  Solving for Uy, Initial residual = 2.06071e-06, Final residual = 1.09812e-11, No Iterations 1
DILUPBiCGStab:  Solving for h, Initial residual = 2.07834e-05, Final residual = 8.12475e-11, No Iterations 1
DICPCG:  Solving for p_rgh, Initial residual = 8.10969e-05, Final residual = 6.44892e-07, No Iterations 20
diagonal:  Solving for rho, Initial residual = 0, Final residual = 0, No Iterations 0
time step continuity errors : sum local = 2.22229e-11, global = 2.84842e-12, cumulative = -8.13807e-08
DICPCG:  Solving for p_rgh, Initial residual = 7.76964e-07, Final residual = 7.26064e-09, No Iterations 18
diagonal:  Solving for rho, Initial residual = 0, Final residual = 0, No Iterations 0
time step continuity errors : sum local = 4.4019e-13, global = 3.29431e-13, cumulative = -8.13803e-08
DILUPBiCGStab:  Solving for epsilon, Initial residual = 2.62731e-06, Final residual = 1.92179e-11, No Iterations 1
DILUPBiCGStab:  Solving for k, Initial residual = 4.33638e-06, Final residual = 3.11957e-11, No Iterations 1
ExecutionTime = 0.14 s  ClockTime = 0 s

Courant Number mean: 0.00431429 max: 0.0176788
Time = 710.59

diagonal:  Solving for rho, Initial residual = 0, Final residual = 0, No Iterations 0
DILUPBiCGStab:  Solving for Ux, Initial residual = 2.00368e-06, Final residual = 1.03805e-11, No Iterations 1
DILUPBiCGStab:  Solving for Uy, Initial residual = 2.06721e-06, Final residual = 1.09768e-11, No Iterations 1
DILUPBiCGStab:  Solving for h, Initial residual = 2.06636e-05, Final residual = 8.07182e-11, No Iterations 1
DICPCG:  Solving for p_rgh, Initial residual = 8.09533e-05, Final residual = 7.00539e-07, No Iterations 20
[...]

Courant Number mean: 0.00431589 max: 0.0177092
Time = 719.86

diagonal:  Solving for rho, Initial residual = 0, Final residual = 0, No Iterations 0
DILUPBiCGStab:  Solving for Ux, Initial residual = 1.82253e-06, Final residual = 9.51507e-12, No Iterations 1
DILUPBiCGStab:  Solving for Uy, Initial residual = 1.9464e-06, Final residual = 1.03742e-11, No Iterations 1
DILUPBiCGStab:  Solving for h, Initial residual = 2.07681e-05, Final residual = 7.09673e-11, No Iterations 1
DICPCG:  Solving for p_rgh, Initial residual = 3.06036e-06, Final residual = 2.65074e-08, No Iterations 19
diagonal:  Solving for rho, Initial residual = 0, Final residual = 0, No Iterations 0
time step continuity errors : sum local = 2.8001e-12, global = 2.45866e-12, cumulative = -7.90445e-08
DICPCG:  Solving for p_rgh, Initial residual = 8.28057e-08, Final residual = 9.12461e-09, No Iterations 16
diagonal:  Solving for rho, Initial residual = 0, Final residual = 0, No Iterations 0
time step continuity errors : sum local = 3.4443e-13, global = 7.91184e-15, cumulative = -7.90445e-08
DILUPBiCGStab:  Solving for epsilon, Initial residual = 2.48665e-06, Final residual = 1.81179e-11, No Iterations 1
DILUPBiCGStab:  Solving for k, Initial residual = 4.16913e-06, Final residual = 2.95813e-11, No Iterations 1
ExecutionTime = 2.2 s  ClockTime = 2 s

Courant Number mean: 0.00431589 max: 0.0177093
Time = 719.87

diagonal:  Solving for rho, Initial residual = 0, Final residual = 0, No Iterations 0
DILUPBiCGStab:  Solving for Ux, Initial residual = 1.82243e-06, Final residual = 9.51469e-12, No Iterations 1
DILUPBiCGStab:  Solving for Uy, Initial residual = 1.9463e-06, Final residual = 1.03736e-11, No Iterations 1
DILUPBiCGStab:  Solving for h, Initial residual = 2.07676e-05, Final residual = 7.09663e-11, No Iterations 1
DICPCG:  Solving for p_rgh, Initial residual = 3.05993e-06, Final residual = 2.64149e-08, No Iterations 19
diagonal:  Solving for rho, Initial residual = 0, Final residual = 0, No Iterations 0
time step continuity errors : sum local = 2.8039e-12, global = 2.46963e-12, cumulative = -7.90421e-08
DICPCG:  Solving for p_rgh, Initial residual = 8.31431e-08, Final residual = 9.19832e-09, No Iterations 16
diagonal:  Solving for rho, Initial residual = 0, Final residual = 0, No Iterations 0
time step continuity errors : sum local = 3.55009e-13, global = 3.31439e-15, cumulative = -7.9042e-08
DILUPBiCGStab:  Solving for epsilon, Initial residual = 2.48652e-06, Final residual = 1.81171e-11, No Iterations 1
DILUPBiCGStab:  Solving for k, Initial residual = 4.16896e-06, Final residual = 2.958e-11, No Iterations 1
ExecutionTime = 2.21 s  ClockTime = 2 s

Courant Number mean: 0.00431589 max: 0.0177093
Time = 719.88

diagonal:  Solving for rho, Initial residual = 0, Final residual = 0, No Iterations 0
DILUPBiCGStab:  Solving for Ux, Initial residual = 1.82233e-06, Final residual = 9.51434e-12, No Iterations 1
DILUPBiCGStab:  Solving for Uy, Initial residual = 1.94619e-06, Final residual = 1.0373e-11, No Iterations 1
DILUPBiCGStab:  Solving for h, Initial residual = 2.07671e-05, Final residual = 7.09653e-11, No Iterations 1
DICPCG:  Solving for p_rgh, Initial residual = 3.05963e-06, Final residual = 2.64374e-08, No Iterations 19
diagonal:  Solving for rho, Initial residual = 0, Final residual = 0, No Iterations 0
time step continuity errors : sum local = 2.80315e-12, global = 2.46822e-12, cumulative = -7.90396e-08
DICPCG:  Solving for p_rgh, Initial residual = 8.2975e-08, Final residual = 9.1683e-09, No Iterations 16
diagonal:  Solving for rho, Initial residual = 0, Final residual = 0, No Iterations 0
time step continuity errors : sum local = 3.51282e-13, global = 1.27368e-14, cumulative = -7.90396e-08
DILUPBiCGStab:  Solving for epsilon, Initial residual = 2.4864e-06, Final residual = 1.81163e-11, No Iterations 1
DILUPBiCGStab:  Solving for k, Initial residual = 4.16878e-06, Final residual = 2.95787e-11, No Iterations 1
ExecutionTime = 2.21 s  ClockTime = 2 s

Courant Number mean: 0.00431589 max: 0.0177093
Time = 719.89

diagonal:  Solving for rho, Initial residual = 0, Final residual = 0, No Iterations 0
DILUPBiCGStab:  Solving for Ux, Initial residual = 1.82222e-06, Final residual = 9.51397e-12, No Iterations 1
DILUPBiCGStab:  Solving for Uy, Initial residual = 1.94609e-06, Final residual = 1.03724e-11, No Iterations 1
DILUPBiCGStab:  Solving for h, Initial residual = 2.07666e-05, Final residual = 7.09643e-11, No Iterations 1
DICPCG:  Solving for p_rgh, Initial residual = 3.05902e-06, Final residual = 2.65715e-08, No Iterations 19
diagonal:  Solving for rho, Initial residual = 0, Final residual = 0, No Iterations 0
time step continuity errors : sum local = 2.81556e-12, global = 2.46892e-12, cumulative = -7.90371e-08
DICPCG:  Solving for p_rgh, Initial residual = 8.32422e-08, Final residual = 9.34479e-09, No Iterations 16
diagonal:  Solving for rho, Initial residual = 0, Final residual = 0, No Iterations 0
time step continuity errors : sum local = 3.56562e-13, global = 1.17263e-14, cumulative = -7.90371e-08
DILUPBiCGStab:  Solving for epsilon, Initial residual = 2.48627e-06, Final residual = 1.81155e-11, No Iterations 1
DILUPBiCGStab:  Solving for k, Initial residual = 4.1686e-06, Final residual = 2.95774e-11, No Iterations 1
ExecutionTime = 2.21 s  ClockTime = 2 s

Courant Number mean: 0.00431589 max: 0.0177094
Time = 719.9

diagonal:  Solving for rho, Initial residual = 0, Final residual = 0, No Iterations 0
DILUPBiCGStab:  Solving for Ux, Initial residual = 1.82213e-06, Final residual = 9.51359e-12, No Iterations 1
DILUPBiCGStab:  Solving for Uy, Initial residual = 1.94598e-06, Final residual = 1.03717e-11, No Iterations 1
DILUPBiCGStab:  Solving for h, Initial residual = 2.07661e-05, Final residual = 7.09633e-11, No Iterations 1
DICPCG:  Solving for p_rgh, Initial residual = 3.05897e-06, Final residual = 2.64711e-08, No Iterations 19
diagonal:  Solving for rho, Initial residual = 0, Final residual = 0, No Iterations 0
time step continuity errors : sum local = 2.81534e-12, global = 2.4616e-12, cumulative = -7.90346e-08
DICPCG:  Solving for p_rgh, Initial residual = 8.29143e-08, Final residual = 9.31064e-09, No Iterations 16
diagonal:  Solving for rho, Initial residual = 0, Final residual = 0, No Iterations 0
time step continuity errors : sum local = 3.49886e-13, global = 1.4182e-14, cumulative = -7.90346e-08
DILUPBiCGStab:  Solving for epsilon, Initial residual = 2.48615e-06, Final residual = 1.81148e-11, No Iterations 1
DILUPBiCGStab:  Solving for k, Initial residual = 4.16842e-06, Final residual = 2.95761e-11, No Iterations 1
ExecutionTime = 2.21 s  ClockTime = 2 s

Courant Number mean: 0.0043159 max: 0.0177094
Time = 719.91

diagonal:  Solving for rho, Initial residual = 0, Final residual = 0, No Iterations 0
DILUPBiCGStab:  Solving for Ux, Initial residual = 1.82202e-06, Final residual = 9.51324e-12, No Iterations 1
DILUPBiCGStab:  Solving for Uy, Initial residual = 1.94587e-06, Final residual = 1.03711e-11, No Iterations 1
DILUPBiCGStab:  Solving for h, Initial residual = 2.07656e-05, Final residual = 7.09623e-11, No Iterations 1
DICPCG:  Solving for p_rgh, Initial residual = 3.05901e-06, Final residual = 2.65904e-08, No Iterations 19
diagonal:  Solving for rho, Initial residual = 0, Final residual = 0, No Iterations 0
time step continuity errors : sum local = 2.80222e-12, global = 2.46251e-12, cumulative = -7.90321e-08
DICPCG:  Solving for p_rgh, Initial residual = 8.29101e-08, Final residual = 9.24654e-09, No Iterations 16
diagonal:  Solving for rho, Initial residual = 0, Final residual = 0, No Iterations 0
time step continuity errors : sum local = 3.52707e-13, global = 1.38854e-14, cumulative = -7.90321e-08
DILUPBiCGStab:  Solving for epsilon, Initial residual = 2.48602e-06, Final residual = 1.8114e-11, No Iterations 1
DILUPBiCGStab:  Solving for k, Initial residual = 4.16824e-06, Final residual = 2.95748e-11, No Iterations 1
ExecutionTime = 2.22 s  ClockTime = 2 s

Courant Number mean: 0.0043159 max: 0.0177094
Time = 719.92

diagonal:  Solving for rho, Initial residual = 0, Final residual = 0, No Iterations 0
DILUPBiCGStab:  Solving for Ux, Initial residual = 1.82192e-06, Final residual = 9.51286e-12, No Iterations 1
DILUPBiCGStab:  Solving for Uy, Initial residual = 1.94577e-06, Final residual = 1.03705e-11, No Iterations 1
DILUPBiCGStab:  Solving for h, Initial residual = 2.07651e-05, Final residual = 7.09614e-11, No Iterations 1
DICPCG:  Solving for p_rgh, Initial residual = 3.05887e-06, Final residual = 2.63888e-08, No Iterations 19
diagonal:  Solving for rho, Initial residual = 0, Final residual = 0, No Iterations 0
time step continuity errors : sum local = 2.79946e-12, global = 2.46507e-12, cumulative = -7.90297e-08
DICPCG:  Solving for p_rgh, Initial residual = 8.29098e-08, Final residual = 9.17117e-09, No Iterations 16
diagonal:  Solving for rho, Initial residual = 0, Final residual = 0, No Iterations 0
time step continuity errors : sum local = 3.35735e-13, global = 5.55748e-15, cumulative = -7.90297e-08
DILUPBiCGStab:  Solving for epsilon, Initial residual = 2.4859e-06, Final residual = 1.81132e-11, No Iterations 1
DILUPBiCGStab:  Solving for k, Initial residual = 4.16806e-06, Final residual = 2.95735e-11, No Iterations 1
ExecutionTime = 2.22 s  ClockTime = 2 s

Courant Number mean: 0.0043159 max: 0.0177095
Time = 719.93

diagonal:  Solving for rho, Initial residual = 0, Final residual = 0, No Iterations 0
DILUPBiCGStab:  Solving for Ux, Initial residual = 1.82182e-06, Final residual = 9.51249e-12, No Iterations 1
DILUPBiCGStab:  Solving for Uy, Initial residual = 1.94566e-06, Final residual = 1.03699e-11, No Iterations 1
DILUPBiCGStab:  Solving for h, Initial residual = 2.07645e-05, Final residual = 7.09604e-11, No Iterations 1
DICPCG:  Solving for p_rgh, Initial residual = 3.05825e-06, Final residual = 2.62333e-08, No Iterations 19
diagonal:  Solving for rho, Initial residual = 0, Final residual = 0, No Iterations 0
time step continuity errors : sum local = 2.81269e-12, global = 2.46726e-12, cumulative = -7.90272e-08
DICPCG:  Solving for p_rgh, Initial residual = 8.33035e-08, Final residual = 9.27681e-09, No Iterations 16
diagonal:  Solving for rho, Initial residual = 0, Final residual = 0, No Iterations 0
time step continuity errors : sum local = 3.51261e-13, global = 9.14528e-16, cumulative = -7.90272e-08
DILUPBiCGStab:  Solving for epsilon, Initial residual = 2.48577e-06, Final residual = 1.81124e-11, No Iterations 1
DILUPBiCGStab:  Solving for k, Initial residual = 4.16788e-06, Final residual = 2.95722e-11, No Iterations 1
ExecutionTime = 2.22 s  ClockTime = 2 s

Courant Number mean: 0.0043159 max: 0.0177095
Time = 719.94

diagonal:  Solving for rho, Initial residual = 0, Final residual = 0, No Iterations 0
DILUPBiCGStab:  Solving for Ux, Initial residual = 1.82172e-06, Final residual = 9.51213e-12, No Iterations 1
DILUPBiCGStab:  Solving for Uy, Initial residual = 1.94555e-06, Final residual = 1.03692e-11, No Iterations 1
DILUPBiCGStab:  Solving for h, Initial residual = 2.0764e-05, Final residual = 7.09594e-11, No Iterations 1
DICPCG:  Solving for p_rgh, Initial residual = 3.0584e-06, Final residual = 2.64231e-08, No Iterations 19
diagonal:  Solving for rho, Initial residual = 0, Final residual = 0, No Iterations 0
time step continuity errors : sum local = 2.80931e-12, global = 2.46821e-12, cumulative = -7.90247e-08
DICPCG:  Solving for p_rgh, Initial residual = 8.35392e-08, Final residual = 9.17609e-09, No Iterations 16
diagonal:  Solving for rho, Initial residual = 0, Final residual = 0, No Iterations 0
time step continuity errors : sum local = 3.47627e-13, global = 1.06385e-15, cumulative = -7.90247e-08
DILUPBiCGStab:  Solving for epsilon, Initial residual = 2.48565e-06, Final residual = 1.81117e-11, No Iterations 1
DILUPBiCGStab:  Solving for k, Initial residual = 4.1677e-06, Final residual = 2.95709e-11, No Iterations 1
ExecutionTime = 2.22 s  ClockTime = 2 s

Courant Number mean: 0.0043159 max: 0.0177095
Time = 719.95

diagonal:  Solving for rho, Initial residual = 0, Final residual = 0, No Iterations 0
DILUPBiCGStab:  Solving for Ux, Initial residual = 1.82161e-06, Final residual = 9.51176e-12, No Iterations 1
DILUPBiCGStab:  Solving for Uy, Initial residual = 1.94545e-06, Final residual = 1.03686e-11, No Iterations 1
DILUPBiCGStab:  Solving for h, Initial residual = 2.07635e-05, Final residual = 7.09584e-11, No Iterations 1
DICPCG:  Solving for p_rgh, Initial residual = 3.05864e-06, Final residual = 2.65836e-08, No Iterations 19
diagonal:  Solving for rho, Initial residual = 0, Final residual = 0, No Iterations 0
time step continuity errors : sum local = 2.81228e-12, global = 2.4642e-12, cumulative = -7.90223e-08
DICPCG:  Solving for p_rgh, Initial residual = 8.32874e-08, Final residual = 9.29296e-09, No Iterations 16
diagonal:  Solving for rho, Initial residual = 0, Final residual = 0, No Iterations 0
time step continuity errors : sum local = 3.51166e-13, global = 5.17777e-15, cumulative = -7.90223e-08
DILUPBiCGStab:  Solving for epsilon, Initial residual = 2.48552e-06, Final residual = 1.81109e-11, No Iterations 1
DILUPBiCGStab:  Solving for k, Initial residual = 4.16752e-06, Final residual = 2.95696e-11, No Iterations 1
ExecutionTime = 2.22 s  ClockTime = 2 s

Courant Number mean: 0.0043159 max: 0.0177096
Time = 719.96

diagonal:  Solving for rho, Initial residual = 0, Final residual = 0, No Iterations 0
DILUPBiCGStab:  Solving for Ux, Initial residual = 1.82151e-06, Final residual = 9.5114e-12, No Iterations 1
DILUPBiCGStab:  Solving for Uy, Initial residual = 1.94534e-06, Final residual = 1.0368e-11, No Iterations 1
DILUPBiCGStab:  Solving for h, Initial residual = 2.0763e-05, Final residual = 7.09575e-11, No Iterations 1
DICPCG:  Solving for p_rgh, Initial residual = 3.05657e-06, Final residual = 2.63233e-08, No Iterations 19
diagonal:  Solving for rho, Initial residual = 0, Final residual = 0, No Iterations 0
time step continuity errors : sum local = 2.80083e-12, global = 2.4573e-12, cumulative = -7.90198e-08
DICPCG:  Solving for p_rgh, Initial residual = 8.28711e-08, Final residual = 9.11662e-09, No Iterations 16
diagonal:  Solving for rho, Initial residual = 0, Final residual = 0, No Iterations 0
time step continuity errors : sum local = 3.44931e-13, global = 6.29622e-15, cumulative = -7.90198e-08
DILUPBiCGStab:  Solving for epsilon, Initial residual = 2.4854e-06, Final residual = 1.81101e-11, No Iterations 1
DILUPBiCGStab:  Solving for k, Initial residual = 4.16734e-06, Final residual = 2.95683e-11, No Iterations 1
ExecutionTime = 2.23 s  ClockTime = 2 s

Courant Number mean: 0.00431591 max: 0.0177096
Time = 719.97

diagonal:  Solving for rho, Initial residual = 0, Final residual = 0, No Iterations 0
DILUPBiCGStab:  Solving for Ux, Initial residual = 1.82141e-06, Final residual = 9.51104e-12, No Iterations 1
DILUPBiCGStab:  Solving for Uy, Initial residual = 1.94523e-06, Final residual = 1.03674e-11, No Iterations 1
DILUPBiCGStab:  Solving for h, Initial residual = 2.07625e-05, Final residual = 7.09565e-11, No Iterations 1
DICPCG:  Solving for p_rgh, Initial residual = 3.05802e-06, Final residual = 2.64544e-08, No Iterations 19
diagonal:  Solving for rho, Initial residual = 0, Final residual = 0, No Iterations 0
time step continuity errors : sum local = 2.79389e-12, global = 2.46151e-12, cumulative = -7.90173e-08
DICPCG:  Solving for p_rgh, Initial residual = 8.29241e-08, Final residual = 9.26047e-09, No Iterations 16
diagonal:  Solving for rho, Initial residual = 0, Final residual = 0, No Iterations 0
time step continuity errors : sum local = 3.60552e-13, global = 2.45859e-15, cumulative = -7.90173e-08
DILUPBiCGStab:  Solving for epsilon, Initial residual = 2.48527e-06, Final residual = 1.81093e-11, No Iterations 1
DILUPBiCGStab:  Solving for k, Initial residual = 4.16717e-06, Final residual = 2.9567e-11, No Iterations 1
ExecutionTime = 2.23 s  ClockTime = 2 s

Courant Number mean: 0.00431591 max: 0.0177096
Time = 719.98

diagonal:  Solving for rho, Initial residual = 0, Final residual = 0, No Iterations 0
DILUPBiCGStab:  Solving for Ux, Initial residual = 1.82131e-06, Final residual = 9.51066e-12, No Iterations 1
DILUPBiCGStab:  Solving for Uy, Initial residual = 1.94513e-06, Final residual = 1.03668e-11, No Iterations 1
DILUPBiCGStab:  Solving for h, Initial residual = 2.0762e-05, Final residual = 7.09555e-11, No Iterations 1
DICPCG:  Solving for p_rgh, Initial residual = 3.05682e-06, Final residual = 2.65303e-08, No Iterations 19
diagonal:  Solving for rho, Initial residual = 0, Final residual = 0, No Iterations 0
time step continuity errors : sum local = 2.79852e-12, global = 2.4634e-12, cumulative = -7.90149e-08
DICPCG:  Solving for p_rgh, Initial residual = 8.3096e-08, Final residual = 9.34049e-09, No Iterations 16
diagonal:  Solving for rho, Initial residual = 0, Final residual = 0, No Iterations 0
time step continuity errors : sum local = 3.46395e-13, global = 1.45919e-14, cumulative = -7.90149e-08
DILUPBiCGStab:  Solving for epsilon, Initial residual = 2.48515e-06, Final residual = 1.81085e-11, No Iterations 1
DILUPBiCGStab:  Solving for k, Initial residual = 4.16699e-06, Final residual = 2.95657e-11, No Iterations 1
ExecutionTime = 2.23 s  ClockTime = 2 s

Courant Number mean: 0.00431591 max: 0.0177097
Time = 719.99

diagonal:  Solving for rho, Initial residual = 0, Final residual = 0, No Iterations 0
DILUPBiCGStab:  Solving for Ux, Initial residual = 1.82121e-06, Final residual = 9.5103e-12, No Iterations 1
DILUPBiCGStab:  Solving for Uy, Initial residual = 1.94502e-06, Final residual = 1.03661e-11, No Iterations 1
DILUPBiCGStab:  Solving for h, Initial residual = 2.07615e-05, Final residual = 7.09546e-11, No Iterations 1
DICPCG:  Solving for p_rgh, Initial residual = 3.05675e-06, Final residual = 2.63801e-08, No Iterations 19
diagonal:  Solving for rho, Initial residual = 0, Final residual = 0, No Iterations 0
time step continuity errors : sum local = 2.81592e-12, global = 2.46994e-12, cumulative = -7.90124e-08
DICPCG:  Solving for p_rgh, Initial residual = 8.30665e-08, Final residual = 9.24583e-09, No Iterations 16
diagonal:  Solving for rho, Initial residual = 0, Final residual = 0, No Iterations 0
time step continuity errors : sum local = 3.43391e-13, global = 7.7679e-15, cumulative = -7.90124e-08
DILUPBiCGStab:  Solving for epsilon, Initial residual = 2.48502e-06, Final residual = 1.81078e-11, No Iterations 1
DILUPBiCGStab:  Solving for k, Initial residual = 4.16681e-06, Final residual = 2.95644e-11, No Iterations 1
ExecutionTime = 2.23 s  ClockTime = 2 s

Courant Number mean: 0.00431591 max: 0.0177097
Time = 720

diagonal:  Solving for rho, Initial residual = 0, Final residual = 0, No Iterations 0
DILUPBiCGStab:  Solving for Ux, Initial residual = 1.82111e-06, Final residual = 9.50992e-12, No Iterations 1
DILUPBiCGStab:  Solving for Uy, Initial residual = 1.94491e-06, Final residual = 1.03655e-11, No Iterations 1
DILUPBiCGStab:  Solving for h, Initial residual = 2.0761e-05, Final residual = 7.09536e-11, No Iterations 1
DICPCG:  Solving for p_rgh, Initial residual = 3.05724e-06, Final residual = 2.64182e-08, No Iterations 19
diagonal:  Solving for rho, Initial residual = 0, Final residual = 0, No Iterations 0
time step continuity errors : sum local = 2.8052e-12, global = 2.46512e-12, cumulative = -7.90099e-08
DICPCG:  Solving for p_rgh, Initial residual = 8.30097e-08, Final residual = 9.23585e-09, No Iterations 16
diagonal:  Solving for rho, Initial residual = 0, Final residual = 0, No Iterations 0
time step continuity errors : sum local = 3.50527e-13, global = 9.65486e-15, cumulative = -7.90099e-08
DILUPBiCGStab:  Solving for epsilon, Initial residual = 2.4849e-06, Final residual = 1.8107e-11, No Iterations 1
DILUPBiCGStab:  Solving for k, Initial residual = 4.16663e-06, Final residual = 2.95631e-11, No Iterations 1
ExecutionTime = 2.24 s  ClockTime = 2 s

End

