/*---------------------------------------------------------------------------*\
  =========                 |
  \\      /  F ield         | OpenFOAM: The Open Source CFD Toolbox
   \\    /   O peration     | Website:  https://openfoam.org
    \\  /    A nd           | Version:  6
     \\/     M anipulation  |
\*---------------------------------------------------------------------------*/
Build  : 6-e29811f5dff8
Exec   : buoyantPimpleFoam -case /home/mamitsu/OpenFOAM/mamitsu-6/run/aircond5/play/case4
Date   : Nov 23 2020
Time   : 01:33:23
Host   : "mamitsu-desktop"
PID    : 25970
I/O    : uncollated
Case   : /home/mamitsu/OpenFOAM/mamitsu-6/run/aircond5/play/case4
nProcs : 1
sigFpe : Enabling floating point exception trapping (FOAM_SIGFPE).
fileModificationChecking : Monitoring run-time modified files using timeStampMaster (fileModificationSkew 10)
allowSystemOperations : Allowing user-supplied system call operations

// * * * * * * * * * * * * * * * * * * * * * * * * * * * * * * * * * * * * * //
Create time

Create mesh for time = 710


PIMPLE: No convergence criteria found


PIMPLE: Operating solver in PISO mode

Reading thermophysical properties

Selecting thermodynamics package
{
    type            heRhoThermo;
    mixture         pureMixture;
    transport       const;
    thermo          hConst;
    equationOfState perfectGas;
    specie          specie;
    energy          sensibleEnthalpy;
}

Reading field U

Reading/calculating face flux field phi

Creating turbulence model

Selecting turbulence model type RAS
Selecting RAS turbulence model kEpsilon
RAS
{
    RASModel        kEpsilon;
    turbulence      on;
    printCoeffs     on;
    Cmu             0.09;
    C1              1.44;
    C2              1.92;
    C3              0;
    sigmak          1;
    sigmaEps        1.3;
}


Reading g

Reading hRef
Calculating field g.h

Reading field p_rgh

Creating field dpdt

Creating field kinetic energy K

No MRF models present

Radiation model not active: radiationProperties not found
Selecting radiationModel none
No finite volume options present
Courant Number mean: 0.0052809 max: 0.0301491

Starting time loop

Courant Number mean: 0.0052809 max: 0.0301491
Time = 710.01

diagonal:  Solving for rho, Initial residual = 0, Final residual = 0, No Iterations 0
DILUPBiCGStab:  Solving for Ux, Initial residual = 0.00266404, Final residual = 3.40288e-08, No Iterations 1
DILUPBiCGStab:  Solving for Uy, Initial residual = 0.0648765, Final residual = 5.09882e-07, No Iterations 1
DILUPBiCGStab:  Solving for h, Initial residual = 2.94619e-05, Final residual = 2.23468e-10, No Iterations 1
DICPCG:  Solving for p_rgh, Initial residual = 0.979254, Final residual = 0.00606047, No Iterations 4
diagonal:  Solving for rho, Initial residual = 0, Final residual = 0, No Iterations 0
time step continuity errors : sum local = 7.42683e-06, global = -1.73939e-07, cumulative = -1.73939e-07
DICPCG:  Solving for p_rgh, Initial residual = 0.108354, Final residual = 4.98966e-09, No Iterations 38
diagonal:  Solving for rho, Initial residual = 0, Final residual = 0, No Iterations 0
time step continuity errors : sum local = 3.08625e-10, global = 1.96932e-11, cumulative = -1.73919e-07
DILUPBiCGStab:  Solving for epsilon, Initial residual = 2.56546e-06, Final residual = 3.55912e-11, No Iterations 1
DILUPBiCGStab:  Solving for k, Initial residual = 4.50109e-06, Final residual = 7.06565e-11, No Iterations 1
ExecutionTime = 0.01 s  ClockTime = 0 s

Courant Number mean: 0.00528136 max: 0.0301576
Time = 710.02

diagonal:  Solving for rho, Initial residual = 0, Final residual = 0, No Iterations 0
DILUPBiCGStab:  Solving for Ux, Initial residual = 4.04058e-05, Final residual = 3.60685e-10, No Iterations 1
DILUPBiCGStab:  Solving for Uy, Initial residual = 0.000237368, Final residual = 2.26984e-09, No Iterations 1
DILUPBiCGStab:  Solving for h, Initial residual = 6.38538e-05, Final residual = 5.99498e-10, No Iterations 1
DICPCG:  Solving for p_rgh, Initial residual = 0.0639773, Final residual = 0.000604968, No Iterations 15
diagonal:  Solving for rho, Initial residual = 0, Final residual = 0, No Iterations 0
time step continuity errors : sum local = 4.28483e-08, global = -1.08706e-08, cumulative = -1.8479e-07
DICPCG:  Solving for p_rgh, Initial residual = 0.000649674, Final residual = 8.04378e-09, No Iterations 32
diagonal:  Solving for rho, Initial residual = 0, Final residual = 0, No Iterations 0
time step continuity errors : sum local = 7.5173e-12, global = 2.59464e-13, cumulative = -1.8479e-07
DILUPBiCGStab:  Solving for epsilon, Initial residual = 2.29346e-06, Final residual = 3.33523e-11, No Iterations 1
DILUPBiCGStab:  Solving for k, Initial residual = 4.17322e-06, Final residual = 6.44214e-11, No Iterations 1
ExecutionTime = 0.01 s  ClockTime = 0 s

Courant Number mean: 0.00528103 max: 0.0301519
Time = 710.03

diagonal:  Solving for rho, Initial residual = 0, Final residual = 0, No Iterations 0
DILUPBiCGStab:  Solving for Ux, Initial residual = 4.35249e-05, Final residual = 4.1247e-10, No Iterations 1
DILUPBiCGStab:  Solving for Uy, Initial residual = 0.000223511, Final residual = 2.07554e-09, No Iterations 1
DILUPBiCGStab:  Solving for h, Initial residual = 4.14615e-05, Final residual = 3.83401e-10, No Iterations 1
DICPCG:  Solving for p_rgh, Initial residual = 0.0316078, Final residual = 0.000265389, No Iterations 18
diagonal:  Solving for rho, Initial residual = 0, Final residual = 0, No Iterations 0
time step continuity errors : sum local = 1.86628e-08, global = -5.03557e-10, cumulative = -1.85293e-07
DICPCG:  Solving for p_rgh, Initial residual = 0.00029144, Final residual = 5.94308e-09, No Iterations 32
diagonal:  Solving for rho, Initial residual = 0, Final residual = 0, No Iterations 0
time step continuity errors : sum local = 6.82053e-12, global = -6.60169e-12, cumulative = -1.853e-07
DILUPBiCGStab:  Solving for epsilon, Initial residual = 2.28537e-06, Final residual = 3.29503e-11, No Iterations 1
DILUPBiCGStab:  Solving for k, Initial residual = 4.15924e-06, Final residual = 6.41143e-11, No Iterations 1
ExecutionTime = 0.02 s  ClockTime = 0 s

Courant Number mean: 0.00528097 max: 0.0301509
Time = 710.04

diagonal:  Solving for rho, Initial residual = 0, Final residual = 0, No Iterations 0
DILUPBiCGStab:  Solving for Ux, Initial residual = 3.6738e-05, Final residual = 2.64757e-10, No Iterations 1
DILUPBiCGStab:  Solving for Uy, Initial residual = 2.19919e-05, Final residual = 1.89691e-10, No Iterations 1
DILUPBiCGStab:  Solving for h, Initial residual = 3.75386e-05, Final residual = 2.69006e-10, No Iterations 1
DICPCG:  Solving for p_rgh, Initial residual = 0.00140073, Final residual = 9.92575e-06, No Iterations 24
diagonal:  Solving for rho, Initial residual = 0, Final residual = 0, No Iterations 0
time step continuity errors : sum local = 6.90902e-10, global = 8.93318e-12, cumulative = -1.85291e-07
DICPCG:  Solving for p_rgh, Initial residual = 1.6842e-05, Final residual = 9.52571e-09, No Iterations 28
diagonal:  Solving for rho, Initial residual = 0, Final residual = 0, No Iterations 0
time step continuity errors : sum local = 4.59028e-12, global = -4.4402e-12, cumulative = -1.85295e-07
DILUPBiCGStab:  Solving for epsilon, Initial residual = 2.26672e-06, Final residual = 3.28298e-11, No Iterations 1
DILUPBiCGStab:  Solving for k, Initial residual = 4.13976e-06, Final residual = 6.38602e-11, No Iterations 1
ExecutionTime = 0.02 s  ClockTime = 0 s

Courant Number mean: 0.00528097 max: 0.0301509
Time = 710.05

diagonal:  Solving for rho, Initial residual = 0, Final residual = 0, No Iterations 0
DILUPBiCGStab:  Solving for Ux, Initial residual = 1.9708e-05, Final residual = 1.07682e-10, No Iterations 1
DILUPBiCGStab:  Solving for Uy, Initial residual = 1.87425e-05, Final residual = 1.21016e-10, No Iterations 1
DILUPBiCGStab:  Solving for h, Initial residual = 3.69515e-05, Final residual = 2.37586e-10, No Iterations 1
DICPCG:  Solving for p_rgh, Initial residual = 0.000780441, Final residual = 5.71983e-06, No Iterations 23
diagonal:  Solving for rho, Initial residual = 0, Final residual = 0, No Iterations 0
time step continuity errors : sum local = 3.97462e-10, global = 1.73186e-12, cumulative = -1.85294e-07
DICPCG:  Solving for p_rgh, Initial residual = 8.19397e-06, Final residual = 8.21992e-09, No Iterations 27
diagonal:  Solving for rho, Initial residual = 0, Final residual = 0, No Iterations 0
time step continuity errors : sum local = 3.12602e-12, global = -3.02532e-12, cumulative = -1.85297e-07
DILUPBiCGStab:  Solving for epsilon, Initial residual = 2.25914e-06, Final residual = 3.27718e-11, No Iterations 1
DILUPBiCGStab:  Solving for k, Initial residual = 4.13274e-06, Final residual = 6.37919e-11, No Iterations 1
ExecutionTime = 0.02 s  ClockTime = 0 s

Courant Number mean: 0.00528098 max: 0.0301506
Time = 710.06

diagonal:  Solving for rho, Initial residual = 0, Final residual = 0, No Iterations 0
DILUPBiCGStab:  Solving for Ux, Initial residual = 1.30116e-05, Final residual = 1.37291e-10, No Iterations 1
DILUPBiCGStab:  Solving for Uy, Initial residual = 5.64236e-06, Final residual = 5.51703e-11, No Iterations 1
DILUPBiCGStab:  Solving for h, Initial residual = 3.59262e-05, Final residual = 2.32076e-10, No Iterations 1
DICPCG:  Solving for p_rgh, Initial residual = 0.000298214, Final residual = 2.06295e-06, No Iterations 21
diagonal:  Solving for rho, Initial residual = 0, Final residual = 0, No Iterations 0
time step continuity errors : sum local = 1.42806e-10, global = 3.77573e-12, cumulative = -1.85293e-07
DICPCG:  Solving for p_rgh, Initial residual = 2.6669e-06, Final residual = 8.50736e-09, No Iterations 25
diagonal:  Solving for rho, Initial residual = 0, Final residual = 0, No Iterations 0
time step continuity errors : sum local = 2.34087e-12, global = -2.24527e-12, cumulative = -1.85295e-07
DILUPBiCGStab:  Solving for epsilon, Initial residual = 2.25222e-06, Final residual = 3.27529e-11, No Iterations 1
DILUPBiCGStab:  Solving for k, Initial residual = 4.12576e-06, Final residual = 6.37424e-11, No Iterations 1
ExecutionTime = 0.02 s  ClockTime = 0 s

Courant Number mean: 0.005281 max: 0.0301502
Time = 710.07

diagonal:  Solving for rho, Initial residual = 0, Final residual = 0, No Iterations 0
DILUPBiCGStab:  Solving for Ux, Initial residual = 2.32819e-05, Final residual = 2.04414e-10, No Iterations 1
DILUPBiCGStab:  Solving for Uy, Initial residual = 8.27218e-06, Final residual = 6.91653e-11, No Iterations 1
DILUPBiCGStab:  Solving for h, Initial residual = 3.35921e-05, Final residual = 2.29372e-10, No Iterations 1
DICPCG:  Solving for p_rgh, Initial residual = 0.000179544, Final residual = 1.75974e-06, No Iterations 21
diagonal:  Solving for rho, Initial residual = 0, Final residual = 0, No Iterations 0
time step continuity errors : sum local = 1.22389e-10, global = 4.06396e-12, cumulative = -1.85291e-07
DICPCG:  Solving for p_rgh, Initial residual = 2.20632e-06, Final residual = 6.41988e-09, No Iterations 25
diagonal:  Solving for rho, Initial residual = 0, Final residual = 0, No Iterations 0
time step continuity errors : sum local = 1.20169e-12, global = -1.09484e-12, cumulative = -1.85292e-07
DILUPBiCGStab:  Solving for epsilon, Initial residual = 2.24082e-06, Final residual = 3.26826e-11, No Iterations 1
DILUPBiCGStab:  Solving for k, Initial residual = 4.11295e-06, Final residual = 6.36e-11, No Iterations 1
ExecutionTime = 0.03 s  ClockTime = 0 s

Courant Number mean: 0.005281 max: 0.0301496
Time = 710.08

diagonal:  Solving for rho, Initial residual = 0, Final residual = 0, No Iterations 0
DILUPBiCGStab:  Solving for Ux, Initial residual = 2.11872e-05, Final residual = 1.88556e-10, No Iterations 1
DILUPBiCGStab:  Solving for Uy, Initial residual = 8.00676e-06, Final residual = 7.40624e-11, No Iterations 1
DILUPBiCGStab:  Solving for h, Initial residual = 3.08804e-05, Final residual = 2.23033e-10, No Iterations 1
DICPCG:  Solving for p_rgh, Initial residual = 0.00015836, Final residual = 1.02529e-06, No Iterations 22
diagonal:  Solving for rho, Initial residual = 0, Final residual = 0, No Iterations 0
time step continuity errors : sum local = 7.14138e-11, global = 4.0327e-12, cumulative = -1.85288e-07
DICPCG:  Solving for p_rgh, Initial residual = 1.43646e-06, Final residual = 7.40114e-09, No Iterations 23
diagonal:  Solving for rho, Initial residual = 0, Final residual = 0, No Iterations 0
time step continuity errors : sum local = 7.87722e-13, global = 2.62255e-13, cumulative = -1.85288e-07
DILUPBiCGStab:  Solving for epsilon, Initial residual = 2.22733e-06, Final residual = 3.25791e-11, No Iterations 1
DILUPBiCGStab:  Solving for k, Initial residual = 4.09706e-06, Final residual = 6.34003e-11, No Iterations 1
ExecutionTime = 0.03 s  ClockTime = 0 s

Courant Number mean: 0.00528099 max: 0.030149
Time = 710.09

diagonal:  Solving for rho, Initial residual = 0, Final residual = 0, No Iterations 0
DILUPBiCGStab:  Solving for Ux, Initial residual = 1.50844e-05, Final residual = 1.47988e-10, No Iterations 1
DILUPBiCGStab:  Solving for Uy, Initial residual = 7.94321e-06, Final residual = 7.58907e-11, No Iterations 1
DILUPBiCGStab:  Solving for h, Initial residual = 2.83074e-05, Final residual = 2.11029e-10, No Iterations 1
DICPCG:  Solving for p_rgh, Initial residual = 0.000180921, Final residual = 1.79783e-06, No Iterations 20
diagonal:  Solving for rho, Initial residual = 0, Final residual = 0, No Iterations 0
time step continuity errors : sum local = 1.24139e-10, global = 3.50647e-12, cumulative = -1.85284e-07
DICPCG:  Solving for p_rgh, Initial residual = 2.35115e-06, Final residual = 8.5196e-09, No Iterations 24
diagonal:  Solving for rho, Initial residual = 0, Final residual = 0, No Iterations 0
time step continuity errors : sum local = 1.55602e-12, global = 1.38475e-12, cumulative = -1.85283e-07
DILUPBiCGStab:  Solving for epsilon, Initial residual = 2.21861e-06, Final residual = 3.25701e-11, No Iterations 1
DILUPBiCGStab:  Solving for k, Initial residual = 4.08629e-06, Final residual = 6.32959e-11, No Iterations 1
ExecutionTime = 0.03 s  ClockTime = 0 s

Courant Number mean: 0.00528099 max: 0.0301485
Time = 710.1

diagonal:  Solving for rho, Initial residual = 0, Final residual = 0, No Iterations 0
DILUPBiCGStab:  Solving for Ux, Initial residual = 1.07205e-05, Final residual = 1.14758e-10, No Iterations 1
DILUPBiCGStab:  Solving for Uy, Initial residual = 7.17806e-06, Final residual = 6.89764e-11, No Iterations 1
DILUPBiCGStab:  Solving for h, Initial residual = 2.62357e-05, Final residual = 1.98905e-10, No Iterations 1
DICPCG:  Solving for p_rgh, Initial residual = 0.000264153, Final residual = 2.30252e-06, No Iterations 18
diagonal:  Solving for rho, Initial residual = 0, Final residual = 0, No Iterations 0
time step continuity errors : sum local = 1.6003e-10, global = 4.70068e-12, cumulative = -1.85278e-07
DICPCG:  Solving for p_rgh, Initial residual = 3.11302e-06, Final residual = 7.43505e-09, No Iterations 24
diagonal:  Solving for rho, Initial residual = 0, Final residual = 0, No Iterations 0
time step continuity errors : sum local = 2.26962e-12, global = 2.17019e-12, cumulative = -1.85276e-07
DILUPBiCGStab:  Solving for epsilon, Initial residual = 2.21812e-06, Final residual = 3.25701e-11, No Iterations 1
DILUPBiCGStab:  Solving for k, Initial residual = 4.08273e-06, Final residual = 6.32538e-11, No Iterations 1
ExecutionTime = 0.03 s  ClockTime = 0 s

Courant Number mean: 0.00528099 max: 0.0301482
Time = 710.11

diagonal:  Solving for rho, Initial residual = 0, Final residual = 0, No Iterations 0
DILUPBiCGStab:  Solving for Ux, Initial residual = 8.00931e-06, Final residual = 8.76697e-11, No Iterations 1
DILUPBiCGStab:  Solving for Uy, Initial residual = 5.78101e-06, Final residual = 5.55593e-11, No Iterations 1
DILUPBiCGStab:  Solving for h, Initial residual = 2.4897e-05, Final residual = 1.90989e-10, No Iterations 1
DICPCG:  Solving for p_rgh, Initial residual = 0.000315815, Final residual = 2.62075e-06, No Iterations 20
diagonal:  Solving for rho, Initial residual = 0, Final residual = 0, No Iterations 0
time step continuity errors : sum local = 1.82549e-10, global = 4.74545e-12, cumulative = -1.85271e-07
DICPCG:  Solving for p_rgh, Initial residual = 3.44089e-06, Final residual = 6.48896e-09, No Iterations 25
diagonal:  Solving for rho, Initial residual = 0, Final residual = 0, No Iterations 0
time step continuity errors : sum local = 2.5509e-12, global = 2.49296e-12, cumulative = -1.85269e-07
DILUPBiCGStab:  Solving for epsilon, Initial residual = 2.21775e-06, Final residual = 3.25679e-11, No Iterations 1
DILUPBiCGStab:  Solving for k, Initial residual = 4.08232e-06, Final residual = 6.32441e-11, No Iterations 1
ExecutionTime = 0.04 s  ClockTime = 0 s

Courant Number mean: 0.005281 max: 0.0301482
Time = 710.12

diagonal:  Solving for rho, Initial residual = 0, Final residual = 0, No Iterations 0
DILUPBiCGStab:  Solving for Ux, Initial residual = 5.84685e-06, Final residual = 6.48925e-11, No Iterations 1
DILUPBiCGStab:  Solving for Uy, Initial residual = 4.52492e-06, Final residual = 4.36602e-11, No Iterations 1
DILUPBiCGStab:  Solving for h, Initial residual = 2.42852e-05, Final residual = 1.87612e-10, No Iterations 1
DICPCG:  Solving for p_rgh, Initial residual = 0.000309315, Final residual = 2.41101e-06, No Iterations 16
diagonal:  Solving for rho, Initial residual = 0, Final residual = 0, No Iterations 0
time step continuity errors : sum local = 1.6843e-10, global = -3.88342e-12, cumulative = -1.85273e-07
DICPCG:  Solving for p_rgh, Initial residual = 3.05407e-06, Final residual = 8.1555e-09, No Iterations 25
diagonal:  Solving for rho, Initial residual = 0, Final residual = 0, No Iterations 0
time step continuity errors : sum local = 2.48594e-12, global = 2.38469e-12, cumulative = -1.8527e-07
DILUPBiCGStab:  Solving for epsilon, Initial residual = 2.21726e-06, Final residual = 3.25591e-11, No Iterations 1
DILUPBiCGStab:  Solving for k, Initial residual = 4.08313e-06, Final residual = 6.32561e-11, No Iterations 1
ExecutionTime = 0.04 s  ClockTime = 0 s

Courant Number mean: 0.00528102 max: 0.0301484
Time = 710.13

diagonal:  Solving for rho, Initial residual = 0, Final residual = 0, No Iterations 0
DILUPBiCGStab:  Solving for Ux, Initial residual = 6.16064e-06, Final residual = 5.00756e-11, No Iterations 1
DILUPBiCGStab:  Solving for Uy, Initial residual = 5.19371e-06, Final residual = 4.96344e-11, No Iterations 1
DILUPBiCGStab:  Solving for h, Initial residual = 2.44047e-05, Final residual = 1.87664e-10, No Iterations 1
DICPCG:  Solving for p_rgh, Initial residual = 0.000255172, Final residual = 1.52464e-06, No Iterations 21
diagonal:  Solving for rho, Initial residual = 0, Final residual = 0, No Iterations 0
time step continuity errors : sum local = 1.06815e-10, global = 2.98601e-12, cumulative = -1.85267e-07
DICPCG:  Solving for p_rgh, Initial residual = 1.92139e-06, Final residual = 9.71199e-09, No Iterations 23
diagonal:  Solving for rho, Initial residual = 0, Final residual = 0, No Iterations 0
time step continuity errors : sum local = 2.05416e-12, global = 1.92218e-12, cumulative = -1.85265e-07
DILUPBiCGStab:  Solving for epsilon, Initial residual = 2.218e-06, Final residual = 3.25403e-11, No Iterations 1
DILUPBiCGStab:  Solving for k, Initial residual = 4.0865e-06, Final residual = 6.32893e-11, No Iterations 1
ExecutionTime = 0.04 s  ClockTime = 0 s

Courant Number mean: 0.00528104 max: 0.0301487
Time = 710.14

diagonal:  Solving for rho, Initial residual = 0, Final residual = 0, No Iterations 0
DILUPBiCGStab:  Solving for Ux, Initial residual = 8.55458e-06, Final residual = 6.02452e-11, No Iterations 1
DILUPBiCGStab:  Solving for Uy, Initial residual = 6.37911e-06, Final residual = 5.99307e-11, No Iterations 1
DILUPBiCGStab:  Solving for h, Initial residual = 2.5186e-05, Final residual = 1.90135e-10, No Iterations 1
DICPCG:  Solving for p_rgh, Initial residual = 0.000170417, Final residual = 1.22399e-06, No Iterations 21
diagonal:  Solving for rho, Initial residual = 0, Final residual = 0, No Iterations 0
time step continuity errors : sum local = 8.60477e-11, global = 3.10325e-12, cumulative = -1.85262e-07
DICPCG:  Solving for p_rgh, Initial residual = 1.43569e-06, Final residual = 6.739e-09, No Iterations 23
diagonal:  Solving for rho, Initial residual = 0, Final residual = 0, No Iterations 0
time step continuity errors : sum local = 1.31971e-12, global = 1.22189e-12, cumulative = -1.85261e-07
DILUPBiCGStab:  Solving for epsilon, Initial residual = 2.22483e-06, Final residual = 3.25303e-11, No Iterations 1
DILUPBiCGStab:  Solving for k, Initial residual = 4.09348e-06, Final residual = 6.3354e-11, No Iterations 1
ExecutionTime = 0.04 s  ClockTime = 0 s

Courant Number mean: 0.00528106 max: 0.0301491
Time = 710.15

diagonal:  Solving for rho, Initial residual = 0, Final residual = 0, No Iterations 0
DILUPBiCGStab:  Solving for Ux, Initial residual = 1.06894e-05, Final residual = 7.21639e-11, No Iterations 1
DILUPBiCGStab:  Solving for Uy, Initial residual = 7.24939e-06, Final residual = 6.72745e-11, No Iterations 1
DILUPBiCGStab:  Solving for h, Initial residual = 2.64494e-05, Final residual = 1.94302e-10, No Iterations 1
DICPCG:  Solving for p_rgh, Initial residual = 7.26088e-05, Final residual = 7.01576e-07, No Iterations 21
diagonal:  Solving for rho, Initial residual = 0, Final residual = 0, No Iterations 0
time step continuity errors : sum local = 5.03402e-11, global = 2.97203e-12, cumulative = -1.85258e-07
DICPCG:  Solving for p_rgh, Initial residual = 7.94437e-07, Final residual = 7.17874e-09, No Iterations 22
diagonal:  Solving for rho, Initial residual = 0, Final residual = 0, No Iterations 0
time step continuity errors : sum local = 6.87678e-13, global = 4.37589e-13, cumulative = -1.85258e-07
DILUPBiCGStab:  Solving for epsilon, Initial residual = 2.23249e-06, Final residual = 3.25879e-11, No Iterations 1
DILUPBiCGStab:  Solving for k, Initial residual = 4.10262e-06, Final residual = 6.34536e-11, No Iterations 1
ExecutionTime = 0.04 s  ClockTime = 0 s

Courant Number mean: 0.00528108 max: 0.0301496
Time = 710.16

diagonal:  Solving for rho, Initial residual = 0, Final residual = 0, No Iterations 0
DILUPBiCGStab:  Solving for Ux, Initial residual = 1.12381e-05, Final residual = 7.55596e-11, No Iterations 1
DILUPBiCGStab:  Solving for Uy, Initial residual = 7.5405e-06, Final residual = 6.97876e-11, No Iterations 1
DILUPBiCGStab:  Solving for h, Initial residual = 2.79255e-05, Final residual = 1.99787e-10, No Iterations 1
DICPCG:  Solving for p_rgh, Initial residual = 6.00776e-05, Final residual = 4.76313e-07, No Iterations 21
diagonal:  Solving for rho, Initial residual = 0, Final residual = 0, No Iterations 0
time step continuity errors : sum local = 3.40693e-11, global = 3.63021e-12, cumulative = -1.85254e-07
DICPCG:  Solving for p_rgh, Initial residual = 6.5427e-07, Final residual = 9.20745e-09, No Iterations 19
diagonal:  Solving for rho, Initial residual = 0, Final residual = 0, No Iterations 0
time step continuity errors : sum local = 7.61179e-13, global = -3.45388e-13, cumulative = -1.85254e-07
DILUPBiCGStab:  Solving for epsilon, Initial residual = 2.2393e-06, Final residual = 3.26426e-11, No Iterations 1
DILUPBiCGStab:  Solving for k, Initial residual = 4.11086e-06, Final residual = 6.35571e-11, No Iterations 1
ExecutionTime = 0.05 s  ClockTime = 0 s

Courant Number mean: 0.0052811 max: 0.03015
Time = 710.17

diagonal:  Solving for rho, Initial residual = 0, Final residual = 0, No Iterations 0
DILUPBiCGStab:  Solving for Ux, Initial residual = 1.02666e-05, Final residual = 6.96451e-11, No Iterations 1
DILUPBiCGStab:  Solving for Uy, Initial residual = 7.2536e-06, Final residual = 6.71059e-11, No Iterations 1
DILUPBiCGStab:  Solving for h, Initial residual = 2.93621e-05, Final residual = 2.05489e-10, No Iterations 1
DICPCG:  Solving for p_rgh, Initial residual = 0.000120931, Final residual = 8.47277e-07, No Iterations 20
diagonal:  Solving for rho, Initial residual = 0, Final residual = 0, No Iterations 0
time step continuity errors : sum local = 5.90724e-11, global = 3.79292e-12, cumulative = -1.85251e-07
DICPCG:  Solving for p_rgh, Initial residual = 1.23461e-06, Final residual = 7.05168e-09, No Iterations 23
diagonal:  Solving for rho, Initial residual = 0, Final residual = 0, No Iterations 0
time step continuity errors : sum local = 1.1048e-12, global = -9.7079e-13, cumulative = -1.85252e-07
DILUPBiCGStab:  Solving for epsilon, Initial residual = 2.24426e-06, Final residual = 3.26812e-11, No Iterations 1
DILUPBiCGStab:  Solving for k, Initial residual = 4.11699e-06, Final residual = 6.36324e-11, No Iterations 1
ExecutionTime = 0.05 s  ClockTime = 0 s

Courant Number mean: 0.00528111 max: 0.0301503
Time = 710.18

diagonal:  Solving for rho, Initial residual = 0, Final residual = 0, No Iterations 0
DILUPBiCGStab:  Solving for Ux, Initial residual = 8.419e-06, Final residual = 5.9191e-11, No Iterations 1
DILUPBiCGStab:  Solving for Uy, Initial residual = 6.49207e-06, Final residual = 6.00944e-11, No Iterations 1
DILUPBiCGStab:  Solving for h, Initial residual = 3.05396e-05, Final residual = 2.10299e-10, No Iterations 1
DICPCG:  Solving for p_rgh, Initial residual = 0.000166477, Final residual = 1.15145e-06, No Iterations 20
diagonal:  Solving for rho, Initial residual = 0, Final residual = 0, No Iterations 0
time step continuity errors : sum local = 7.96931e-11, global = 2.61035e-12, cumulative = -1.85249e-07
DICPCG:  Solving for p_rgh, Initial residual = 1.64713e-06, Final residual = 7.2149e-09, No Iterations 24
diagonal:  Solving for rho, Initial residual = 0, Final residual = 0, No Iterations 0
time step continuity errors : sum local = 1.46991e-12, global = -1.34603e-12, cumulative = -1.8525e-07
DILUPBiCGStab:  Solving for epsilon, Initial residual = 2.24674e-06, Final residual = 3.27004e-11, No Iterations 1
DILUPBiCGStab:  Solving for k, Initial residual = 4.12021e-06, Final residual = 6.36716e-11, No Iterations 1
ExecutionTime = 0.05 s  ClockTime = 0 s

Courant Number mean: 0.00528113 max: 0.0301504
Time = 710.19

diagonal:  Solving for rho, Initial residual = 0, Final residual = 0, No Iterations 0
DILUPBiCGStab:  Solving for Ux, Initial residual = 6.56524e-06, Final residual = 5.0686e-11, No Iterations 1
DILUPBiCGStab:  Solving for Uy, Initial residual = 5.46774e-06, Final residual = 5.06563e-11, No Iterations 1
DILUPBiCGStab:  Solving for h, Initial residual = 3.12822e-05, Final residual = 2.1345e-10, No Iterations 1
DICPCG:  Solving for p_rgh, Initial residual = 0.000189261, Final residual = 1.46369e-06, No Iterations 20
diagonal:  Solving for rho, Initial residual = 0, Final residual = 0, No Iterations 0
time step continuity errors : sum local = 1.01497e-10, global = 2.18504e-12, cumulative = -1.85248e-07
DICPCG:  Solving for p_rgh, Initial residual = 1.94418e-06, Final residual = 8.01074e-09, No Iterations 24
diagonal:  Solving for rho, Initial residual = 0, Final residual = 0, No Iterations 0
time step continuity errors : sum local = 1.63918e-12, global = -1.50284e-12, cumulative = -1.8525e-07
DILUPBiCGStab:  Solving for epsilon, Initial residual = 2.24661e-06, Final residual = 3.27003e-11, No Iterations 1
DILUPBiCGStab:  Solving for k, Initial residual = 4.12033e-06, Final residual = 6.36733e-11, No Iterations 1
ExecutionTime = 0.05 s  ClockTime = 0 s

Courant Number mean: 0.00528114 max: 0.0301505
Time = 710.2

diagonal:  Solving for rho, Initial residual = 0, Final residual = 0, No Iterations 0
DILUPBiCGStab:  Solving for Ux, Initial residual = 5.5216e-06, Final residual = 5.35963e-11, No Iterations 1
DILUPBiCGStab:  Solving for Uy, Initial residual = 4.4513e-06, Final residual = 4.26686e-11, No Iterations 1
DILUPBiCGStab:  Solving for h, Initial residual = 3.15186e-05, Final residual = 2.14195e-10, No Iterations 1
DICPCG:  Solving for p_rgh, Initial residual = 0.000179887, Final residual = 1.29538e-06, No Iterations 18
diagonal:  Solving for rho, Initial residual = 0, Final residual = 0, No Iterations 0
time step continuity errors : sum local = 9.08551e-11, global = -9.4005e-13, cumulative = -1.85251e-07
DICPCG:  Solving for p_rgh, Initial residual = 1.64869e-06, Final residual = 8.45651e-09, No Iterations 24
diagonal:  Solving for rho, Initial residual = 0, Final residual = 0, No Iterations 0
time step continuity errors : sum local = 1.52048e-12, global = -1.38091e-12, cumulative = -1.85252e-07
DILUPBiCGStab:  Solving for epsilon, Initial residual = 2.24418e-06, Final residual = 3.26831e-11, No Iterations 1
DILUPBiCGStab:  Solving for k, Initial residual = 4.11769e-06, Final residual = 6.36417e-11, No Iterations 1
ExecutionTime = 0.06 s  ClockTime = 0 s

Courant Number mean: 0.00528115 max: 0.0301504
Time = 710.21

diagonal:  Solving for rho, Initial residual = 0, Final residual = 0, No Iterations 0
DILUPBiCGStab:  Solving for Ux, Initial residual = 5.93541e-06, Final residual = 6.71605e-11, No Iterations 1
DILUPBiCGStab:  Solving for Uy, Initial residual = 4.28234e-06, Final residual = 4.38254e-11, No Iterations 1
DILUPBiCGStab:  Solving for h, Initial residual = 3.12684e-05, Final residual = 2.12549e-10, No Iterations 1
DICPCG:  Solving for p_rgh, Initial residual = 0.000143739, Final residual = 1.02339e-06, No Iterations 16
diagonal:  Solving for rho, Initial residual = 0, Final residual = 0, No Iterations 0
time step continuity errors : sum local = 7.1444e-11, global = 2.5287e-12, cumulative = -1.85249e-07
DICPCG:  Solving for p_rgh, Initial residual = 1.30211e-06, Final residual = 7.60455e-09, No Iterations 23
diagonal:  Solving for rho, Initial residual = 0, Final residual = 0, No Iterations 0
time step continuity errors : sum local = 1.24643e-12, global = -1.06359e-12, cumulative = -1.85251e-07
DILUPBiCGStab:  Solving for epsilon, Initial residual = 2.24011e-06, Final residual = 3.26526e-11, No Iterations 1
DILUPBiCGStab:  Solving for k, Initial residual = 4.11304e-06, Final residual = 6.35849e-11, No Iterations 1
ExecutionTime = 0.06 s  ClockTime = 0 s

Courant Number mean: 0.00528116 max: 0.0301502
Time = 710.22

diagonal:  Solving for rho, Initial residual = 0, Final residual = 0, No Iterations 0
DILUPBiCGStab:  Solving for Ux, Initial residual = 6.8745e-06, Final residual = 7.82276e-11, No Iterations 1
DILUPBiCGStab:  Solving for Uy, Initial residual = 4.70434e-06, Final residual = 4.71348e-11, No Iterations 1
DILUPBiCGStab:  Solving for h, Initial residual = 3.06305e-05, Final residual = 2.09022e-10, No Iterations 1
DICPCG:  Solving for p_rgh, Initial residual = 9.01167e-05, Final residual = 8.75545e-07, No Iterations 18
diagonal:  Solving for rho, Initial residual = 0, Final residual = 0, No Iterations 0
time step continuity errors : sum local = 6.07414e-11, global = 5.89344e-12, cumulative = -1.85245e-07
DICPCG:  Solving for p_rgh, Initial residual = 9.89398e-07, Final residual = 9.45665e-09, No Iterations 23
diagonal:  Solving for rho, Initial residual = 0, Final residual = 0, No Iterations 0
time step continuity errors : sum local = 9.17098e-13, global = -6.26057e-13, cumulative = -1.85245e-07
DILUPBiCGStab:  Solving for epsilon, Initial residual = 2.23521e-06, Final residual = 3.26141e-11, No Iterations 1
DILUPBiCGStab:  Solving for k, Initial residual = 4.10733e-06, Final residual = 6.35135e-11, No Iterations 1
ExecutionTime = 0.06 s  ClockTime = 0 s

Courant Number mean: 0.00528116 max: 0.03015
Time = 710.23

diagonal:  Solving for rho, Initial residual = 0, Final residual = 0, No Iterations 0
DILUPBiCGStab:  Solving for Ux, Initial residual = 7.53513e-06, Final residual = 8.47889e-11, No Iterations 1
DILUPBiCGStab:  Solving for Uy, Initial residual = 5.03147e-06, Final residual = 4.96728e-11, No Iterations 1
DILUPBiCGStab:  Solving for h, Initial residual = 2.97521e-05, Final residual = 2.04349e-10, No Iterations 1
DICPCG:  Solving for p_rgh, Initial residual = 3.38857e-05, Final residual = 3.19159e-07, No Iterations 21
diagonal:  Solving for rho, Initial residual = 0, Final residual = 0, No Iterations 0
time step continuity errors : sum local = 2.17635e-11, global = 3.76242e-12, cumulative = -1.85242e-07
DICPCG:  Solving for p_rgh, Initial residual = 3.50682e-07, Final residual = 7.81502e-09, No Iterations 16
diagonal:  Solving for rho, Initial residual = 0, Final residual = 0, No Iterations 0
time step continuity errors : sum local = 6.12104e-13, global = -1.24175e-13, cumulative = -1.85242e-07
DILUPBiCGStab:  Solving for epsilon, Initial residual = 2.23032e-06, Final residual = 3.25737e-11, No Iterations 1
DILUPBiCGStab:  Solving for k, Initial residual = 4.10155e-06, Final residual = 6.34393e-11, No Iterations 1
ExecutionTime = 0.06 s  ClockTime = 0 s

Courant Number mean: 0.00528117 max: 0.0301498
Time = 710.24

diagonal:  Solving for rho, Initial residual = 0, Final residual = 0, No Iterations 0
DILUPBiCGStab:  Solving for Ux, Initial residual = 7.61325e-06, Final residual = 8.53887e-11, No Iterations 1
DILUPBiCGStab:  Solving for Uy, Initial residual = 5.11063e-06, Final residual = 5.01411e-11, No Iterations 1
DILUPBiCGStab:  Solving for h, Initial residual = 2.87942e-05, Final residual = 1.99344e-10, No Iterations 1
DICPCG:  Solving for p_rgh, Initial residual = 4.70541e-05, Final residual = 3.75185e-07, No Iterations 19
diagonal:  Solving for rho, Initial residual = 0, Final residual = 0, No Iterations 0
time step continuity errors : sum local = 2.62917e-11, global = 3.42414e-12, cumulative = -1.85238e-07
DICPCG:  Solving for p_rgh, Initial residual = 5.14805e-07, Final residual = 7.89084e-09, No Iterations 17
diagonal:  Solving for rho, Initial residual = 0, Final residual = 0, No Iterations 0
time step continuity errors : sum local = 6.82065e-13, global = 3.32365e-13, cumulative = -1.85238e-07
DILUPBiCGStab:  Solving for epsilon, Initial residual = 2.22619e-06, Final residual = 3.25378e-11, No Iterations 1
DILUPBiCGStab:  Solving for k, Initial residual = 4.09659e-06, Final residual = 6.33766e-11, No Iterations 1
ExecutionTime = 0.06 s  ClockTime = 0 s

Courant Number mean: 0.00528118 max: 0.0301497
Time = 710.25

diagonal:  Solving for rho, Initial residual = 0, Final residual = 0, No Iterations 0
DILUPBiCGStab:  Solving for Ux, Initial residual = 7.14938e-06, Final residual = 8.05107e-11, No Iterations 1
DILUPBiCGStab:  Solving for Uy, Initial residual = 4.95467e-06, Final residual = 4.85299e-11, No Iterations 1
DILUPBiCGStab:  Solving for h, Initial residual = 2.79145e-05, Final residual = 1.94856e-10, No Iterations 1
DICPCG:  Solving for p_rgh, Initial residual = 8.00377e-05, Final residual = 5.95391e-07, No Iterations 20
diagonal:  Solving for rho, Initial residual = 0, Final residual = 0, No Iterations 0
time step continuity errors : sum local = 4.15455e-11, global = 3.64117e-12, cumulative = -1.85234e-07
DICPCG:  Solving for p_rgh, Initial residual = 8.37806e-07, Final residual = 5.61156e-09, No Iterations 23
diagonal:  Solving for rho, Initial residual = 0, Final residual = 0, No Iterations 0
time step continuity errors : sum local = 7.91142e-13, global = 6.60296e-13, cumulative = -1.85234e-07
DILUPBiCGStab:  Solving for epsilon, Initial residual = 2.22333e-06, Final residual = 3.25143e-11, No Iterations 1
DILUPBiCGStab:  Solving for k, Initial residual = 4.09308e-06, Final residual = 6.33389e-11, No Iterations 1
ExecutionTime = 0.07 s  ClockTime = 0 s

Courant Number mean: 0.00528118 max: 0.0301495
Time = 710.26

diagonal:  Solving for rho, Initial residual = 0, Final residual = 0, No Iterations 0
DILUPBiCGStab:  Solving for Ux, Initial residual = 6.37176e-06, Final residual = 7.22246e-11, No Iterations 1
DILUPBiCGStab:  Solving for Uy, Initial residual = 4.6429e-06, Final residual = 4.57381e-11, No Iterations 1
DILUPBiCGStab:  Solving for h, Initial residual = 2.72395e-05, Final residual = 1.91507e-10, No Iterations 1
DICPCG:  Solving for p_rgh, Initial residual = 0.000105509, Final residual = 9.88114e-07, No Iterations 20
diagonal:  Solving for rho, Initial residual = 0, Final residual = 0, No Iterations 0
time step continuity errors : sum local = 6.89386e-11, global = 4.48614e-12, cumulative = -1.85229e-07
DICPCG:  Solving for p_rgh, Initial residual = 1.24889e-06, Final residual = 8.75584e-09, No Iterations 23
diagonal:  Solving for rho, Initial residual = 0, Final residual = 0, No Iterations 0
time step continuity errors : sum local = 1.07158e-12, global = 8.58461e-13, cumulative = -1.85228e-07
DILUPBiCGStab:  Solving for epsilon, Initial residual = 2.22202e-06, Final residual = 3.25056e-11, No Iterations 1
DILUPBiCGStab:  Solving for k, Initial residual = 4.09137e-06, Final residual = 6.33231e-11, No Iterations 1
ExecutionTime = 0.07 s  ClockTime = 0 s

Courant Number mean: 0.00528119 max: 0.0301495
Time = 710.27

diagonal:  Solving for rho, Initial residual = 0, Final residual = 0, No Iterations 0
DILUPBiCGStab:  Solving for Ux, Initial residual = 5.72903e-06, Final residual = 6.27057e-11, No Iterations 1
DILUPBiCGStab:  Solving for Uy, Initial residual = 4.31956e-06, Final residual = 4.29473e-11, No Iterations 1
DILUPBiCGStab:  Solving for h, Initial residual = 2.68433e-05, Final residual = 1.89377e-10, No Iterations 1
DICPCG:  Solving for p_rgh, Initial residual = 0.000114383, Final residual = 1.09926e-06, No Iterations 20
diagonal:  Solving for rho, Initial residual = 0, Final residual = 0, No Iterations 0
time step continuity errors : sum local = 7.67854e-11, global = 4.48182e-12, cumulative = -1.85224e-07
DICPCG:  Solving for p_rgh, Initial residual = 1.3399e-06, Final residual = 9.49973e-09, No Iterations 23
diagonal:  Solving for rho, Initial residual = 0, Final residual = 0, No Iterations 0
time step continuity errors : sum local = 1.16126e-12, global = 9.0428e-13, cumulative = -1.85223e-07
DILUPBiCGStab:  Solving for epsilon, Initial residual = 2.22227e-06, Final residual = 3.2505e-11, No Iterations 1
DILUPBiCGStab:  Solving for k, Initial residual = 4.09152e-06, Final residual = 6.33207e-11, No Iterations 1
ExecutionTime = 0.07 s  ClockTime = 0 s

Courant Number mean: 0.00528121 max: 0.0301496
Time = 710.28

diagonal:  Solving for rho, Initial residual = 0, Final residual = 0, No Iterations 0
DILUPBiCGStab:  Solving for Ux, Initial residual = 5.46068e-06, Final residual = 5.35784e-11, No Iterations 1
DILUPBiCGStab:  Solving for Uy, Initial residual = 4.31795e-06, Final residual = 4.24935e-11, No Iterations 1
DILUPBiCGStab:  Solving for h, Initial residual = 2.67451e-05, Final residual = 1.88568e-10, No Iterations 1
DICPCG:  Solving for p_rgh, Initial residual = 0.000104486, Final residual = 9.79979e-07, No Iterations 18
diagonal:  Solving for rho, Initial residual = 0, Final residual = 0, No Iterations 0
time step continuity errors : sum local = 6.8298e-11, global = 6.35623e-12, cumulative = -1.85217e-07
DICPCG:  Solving for p_rgh, Initial residual = 1.17312e-06, Final residual = 8.38547e-09, No Iterations 24
diagonal:  Solving for rho, Initial residual = 0, Final residual = 0, No Iterations 0
time step continuity errors : sum local = 9.95145e-13, global = 7.81455e-13, cumulative = -1.85216e-07
DILUPBiCGStab:  Solving for epsilon, Initial residual = 2.22383e-06, Final residual = 3.25109e-11, No Iterations 1
DILUPBiCGStab:  Solving for k, Initial residual = 4.09316e-06, Final residual = 6.333e-11, No Iterations 1
ExecutionTime = 0.07 s  ClockTime = 0 s

Courant Number mean: 0.00528122 max: 0.0301497
Time = 710.29

diagonal:  Solving for rho, Initial residual = 0, Final residual = 0, No Iterations 0
DILUPBiCGStab:  Solving for Ux, Initial residual = 5.83936e-06, Final residual = 5.0592e-11, No Iterations 1
DILUPBiCGStab:  Solving for Uy, Initial residual = 4.67998e-06, Final residual = 4.53587e-11, No Iterations 1
DILUPBiCGStab:  Solving for h, Initial residual = 2.69207e-05, Final residual = 1.88975e-10, No Iterations 1
DICPCG:  Solving for p_rgh, Initial residual = 7.98297e-05, Final residual = 5.63362e-07, No Iterations 16
diagonal:  Solving for rho, Initial residual = 0, Final residual = 0, No Iterations 0
time step continuity errors : sum local = 3.94861e-11, global = 3.17966e-12, cumulative = -1.85213e-07
DICPCG:  Solving for p_rgh, Initial residual = 6.94491e-07, Final residual = 8.06182e-09, No Iterations 17
diagonal:  Solving for rho, Initial residual = 0, Final residual = 0, No Iterations 0
time step continuity errors : sum local = 8.51846e-13, global = 5.68812e-13, cumulative = -1.85212e-07
DILUPBiCGStab:  Solving for epsilon, Initial residual = 2.22629e-06, Final residual = 3.25304e-11, No Iterations 1
DILUPBiCGStab:  Solving for k, Initial residual = 4.09591e-06, Final residual = 6.33555e-11, No Iterations 1
ExecutionTime = 0.08 s  ClockTime = 0 s

Courant Number mean: 0.00528123 max: 0.0301498
Time = 710.3

diagonal:  Solving for rho, Initial residual = 0, Final residual = 0, No Iterations 0
DILUPBiCGStab:  Solving for Ux, Initial residual = 6.29998e-06, Final residual = 5.03754e-11, No Iterations 1
DILUPBiCGStab:  Solving for Uy, Initial residual = 5.07474e-06, Final residual = 4.84174e-11, No Iterations 1
DILUPBiCGStab:  Solving for h, Initial residual = 2.73122e-05, Final residual = 1.90349e-10, No Iterations 1
DICPCG:  Solving for p_rgh, Initial residual = 4.67372e-05, Final residual = 3.46866e-07, No Iterations 21
diagonal:  Solving for rho, Initial residual = 0, Final residual = 0, No Iterations 0
time step continuity errors : sum local = 2.56197e-11, global = 3.21012e-12, cumulative = -1.85209e-07
DICPCG:  Solving for p_rgh, Initial residual = 4.221e-07, Final residual = 5.12364e-09, No Iterations 22
diagonal:  Solving for rho, Initial residual = 0, Final residual = 0, No Iterations 0
time step continuity errors : sum local = 5.00509e-13, global = 3.06914e-13, cumulative = -1.85208e-07
DILUPBiCGStab:  Solving for epsilon, Initial residual = 2.22915e-06, Final residual = 3.25529e-11, No Iterations 1
DILUPBiCGStab:  Solving for k, Initial residual = 4.09916e-06, Final residual = 6.33935e-11, No Iterations 1
ExecutionTime = 0.08 s  ClockTime = 0 s

Courant Number mean: 0.00528125 max: 0.03015
Time = 710.31

diagonal:  Solving for rho, Initial residual = 0, Final residual = 0, No Iterations 0
DILUPBiCGStab:  Solving for Ux, Initial residual = 6.56053e-06, Final residual = 5.07923e-11, No Iterations 1
DILUPBiCGStab:  Solving for Uy, Initial residual = 5.2864e-06, Final residual = 4.99687e-11, No Iterations 1
DILUPBiCGStab:  Solving for h, Initial residual = 2.78287e-05, Final residual = 1.92308e-10, No Iterations 1
DICPCG:  Solving for p_rgh, Initial residual = 1.99336e-05, Final residual = 1.18204e-07, No Iterations 22
diagonal:  Solving for rho, Initial residual = 0, Final residual = 0, No Iterations 0
time step continuity errors : sum local = 9.81902e-12, global = 3.52988e-12, cumulative = -1.85205e-07
DICPCG:  Solving for p_rgh, Initial residual = 1.70458e-07, Final residual = 9.35822e-09, No Iterations 17
diagonal:  Solving for rho, Initial residual = 0, Final residual = 0, No Iterations 0
time step continuity errors : sum local = 6.56811e-13, global = 2.78848e-14, cumulative = -1.85205e-07
DILUPBiCGStab:  Solving for epsilon, Initial residual = 2.23192e-06, Final residual = 3.25743e-11, No Iterations 1
DILUPBiCGStab:  Solving for k, Initial residual = 4.10233e-06, Final residual = 6.34315e-11, No Iterations 1
ExecutionTime = 0.08 s  ClockTime = 0 s

Courant Number mean: 0.00528126 max: 0.0301502
Time = 710.32

diagonal:  Solving for rho, Initial residual = 0, Final residual = 0, No Iterations 0
DILUPBiCGStab:  Solving for Ux, Initial residual = 6.52523e-06, Final residual = 5.06925e-11, No Iterations 1
DILUPBiCGStab:  Solving for Uy, Initial residual = 5.28858e-06, Final residual = 4.98275e-11, No Iterations 1
DILUPBiCGStab:  Solving for h, Initial residual = 2.83756e-05, Final residual = 1.94434e-10, No Iterations 1
DICPCG:  Solving for p_rgh, Initial residual = 3.52803e-05, Final residual = 2.72271e-07, No Iterations 18
diagonal:  Solving for rho, Initial residual = 0, Final residual = 0, No Iterations 0
time step continuity errors : sum local = 1.98322e-11, global = 3.28727e-12, cumulative = -1.85202e-07
DICPCG:  Solving for p_rgh, Initial residual = 3.91031e-07, Final residual = 9.98319e-09, No Iterations 21
diagonal:  Solving for rho, Initial residual = 0, Final residual = 0, No Iterations 0
time step continuity errors : sum local = 7.94039e-13, global = -2.35969e-13, cumulative = -1.85202e-07
DILUPBiCGStab:  Solving for epsilon, Initial residual = 2.23416e-06, Final residual = 3.25911e-11, No Iterations 1
DILUPBiCGStab:  Solving for k, Initial residual = 4.1049e-06, Final residual = 6.34616e-11, No Iterations 1
ExecutionTime = 0.08 s  ClockTime = 0 s

Courant Number mean: 0.00528128 max: 0.0301503
Time = 710.33

diagonal:  Solving for rho, Initial residual = 0, Final residual = 0, No Iterations 0
DILUPBiCGStab:  Solving for Ux, Initial residual = 6.24235e-06, Final residual = 5.02996e-11, No Iterations 1
DILUPBiCGStab:  Solving for Uy, Initial residual = 5.10695e-06, Final residual = 4.82458e-11, No Iterations 1
DILUPBiCGStab:  Solving for h, Initial residual = 2.88584e-05, Final residual = 1.96328e-10, No Iterations 1
DICPCG:  Solving for p_rgh, Initial residual = 5.32513e-05, Final residual = 3.98678e-07, No Iterations 20
diagonal:  Solving for rho, Initial residual = 0, Final residual = 0, No Iterations 0
time step continuity errors : sum local = 2.81616e-11, global = 3.56129e-12, cumulative = -1.85198e-07
DICPCG:  Solving for p_rgh, Initial residual = 5.64772e-07, Final residual = 7.10892e-09, No Iterations 22
diagonal:  Solving for rho, Initial residual = 0, Final residual = 0, No Iterations 0
time step continuity errors : sum local = 6.82778e-13, global = -4.23907e-13, cumulative = -1.85199e-07
DILUPBiCGStab:  Solving for epsilon, Initial residual = 2.23559e-06, Final residual = 3.26014e-11, No Iterations 1
DILUPBiCGStab:  Solving for k, Initial residual = 4.10653e-06, Final residual = 6.34797e-11, No Iterations 1
ExecutionTime = 0.09 s  ClockTime = 0 s

Courant Number mean: 0.00528129 max: 0.0301504
Time = 710.34

diagonal:  Solving for rho, Initial residual = 0, Final residual = 0, No Iterations 0
DILUPBiCGStab:  Solving for Ux, Initial residual = 5.86576e-06, Final residual = 5.0549e-11, No Iterations 1
DILUPBiCGStab:  Solving for Uy, Initial residual = 4.79961e-06, Final residual = 4.57709e-11, No Iterations 1
DILUPBiCGStab:  Solving for h, Initial residual = 2.92082e-05, Final residual = 1.97645e-10, No Iterations 1
DICPCG:  Solving for p_rgh, Initial residual = 6.66084e-05, Final residual = 5.27571e-07, No Iterations 20
diagonal:  Solving for rho, Initial residual = 0, Final residual = 0, No Iterations 0
time step continuity errors : sum local = 3.68733e-11, global = 3.12965e-12, cumulative = -1.85196e-07
DICPCG:  Solving for p_rgh, Initial residual = 7.14915e-07, Final residual = 9.00571e-09, No Iterations 22
diagonal:  Solving for rho, Initial residual = 0, Final residual = 0, No Iterations 0
time step continuity errors : sum local = 8.41439e-13, global = -5.21608e-13, cumulative = -1.85196e-07
DILUPBiCGStab:  Solving for epsilon, Initial residual = 2.23609e-06, Final residual = 3.26043e-11, No Iterations 1
DILUPBiCGStab:  Solving for k, Initial residual = 4.10705e-06, Final residual = 6.34839e-11, No Iterations 1
ExecutionTime = 0.09 s  ClockTime = 0 s

Courant Number mean: 0.0052813 max: 0.0301505
Time = 710.35

diagonal:  Solving for rho, Initial residual = 0, Final residual = 0, No Iterations 0
DILUPBiCGStab:  Solving for Ux, Initial residual = 5.55592e-06, Final residual = 5.2481e-11, No Iterations 1
DILUPBiCGStab:  Solving for Uy, Initial residual = 4.45012e-06, Final residual = 4.31653e-11, No Iterations 1
DILUPBiCGStab:  Solving for h, Initial residual = 2.93837e-05, Final residual = 1.98166e-10, No Iterations 1
DICPCG:  Solving for p_rgh, Initial residual = 6.90644e-05, Final residual = 5.93865e-07, No Iterations 20
diagonal:  Solving for rho, Initial residual = 0, Final residual = 0, No Iterations 0
time step continuity errors : sum local = 4.13324e-11, global = 3.02845e-12, cumulative = -1.85193e-07
DICPCG:  Solving for p_rgh, Initial residual = 7.60864e-07, Final residual = 8.20558e-09, No Iterations 22
diagonal:  Solving for rho, Initial residual = 0, Final residual = 0, No Iterations 0
time step continuity errors : sum local = 8.2669e-13, global = -5.36125e-13, cumulative = -1.85194e-07
DILUPBiCGStab:  Solving for epsilon, Initial residual = 2.23569e-06, Final residual = 3.26002e-11, No Iterations 1
DILUPBiCGStab:  Solving for k, Initial residual = 4.10649e-06, Final residual = 6.34747e-11, No Iterations 1
ExecutionTime = 0.09 s  ClockTime = 0 s

Courant Number mean: 0.00528131 max: 0.0301505
Time = 710.36

diagonal:  Solving for rho, Initial residual = 0, Final residual = 0, No Iterations 0
DILUPBiCGStab:  Solving for Ux, Initial residual = 5.49322e-06, Final residual = 5.6313e-11, No Iterations 1
DILUPBiCGStab:  Solving for Uy, Initial residual = 4.17596e-06, Final residual = 4.18726e-11, No Iterations 1
DILUPBiCGStab:  Solving for h, Initial residual = 2.93769e-05, Final residual = 1.97847e-10, No Iterations 1
DICPCG:  Solving for p_rgh, Initial residual = 6.08419e-05, Final residual = 5.88031e-07, No Iterations 17
diagonal:  Solving for rho, Initial residual = 0, Final residual = 0, No Iterations 0
time step continuity errors : sum local = 4.1154e-11, global = 1.9024e-12, cumulative = -1.85192e-07
DICPCG:  Solving for p_rgh, Initial residual = 7.12715e-07, Final residual = 7.22796e-09, No Iterations 22
diagonal:  Solving for rho, Initial residual = 0, Final residual = 0, No Iterations 0
time step continuity errors : sum local = 7.43311e-13, global = -4.45661e-13, cumulative = -1.85192e-07
DILUPBiCGStab:  Solving for epsilon, Initial residual = 2.23457e-06, Final residual = 3.25903e-11, No Iterations 1
DILUPBiCGStab:  Solving for k, Initial residual = 4.10506e-06, Final residual = 6.34545e-11, No Iterations 1
ExecutionTime = 0.09 s  ClockTime = 0 s

Courant Number mean: 0.00528132 max: 0.0301505
Time = 710.37

diagonal:  Solving for rho, Initial residual = 0, Final residual = 0, No Iterations 0
DILUPBiCGStab:  Solving for Ux, Initial residual = 5.6265e-06, Final residual = 6.09005e-11, No Iterations 1
DILUPBiCGStab:  Solving for Uy, Initial residual = 4.14322e-06, Final residual = 4.23327e-11, No Iterations 1
DILUPBiCGStab:  Solving for h, Initial residual = 2.92081e-05, Final residual = 1.96783e-10, No Iterations 1
DICPCG:  Solving for p_rgh, Initial residual = 4.46883e-05, Final residual = 3.73997e-07, No Iterations 16
diagonal:  Solving for rho, Initial residual = 0, Final residual = 0, No Iterations 0
time step continuity errors : sum local = 2.64053e-11, global = 4.45069e-12, cumulative = -1.85188e-07
DICPCG:  Solving for p_rgh, Initial residual = 4.55864e-07, Final residual = 5.27732e-09, No Iterations 21
diagonal:  Solving for rho, Initial residual = 0, Final residual = 0, No Iterations 0
time step continuity errors : sum local = 5.01359e-13, global = -3.1235e-13, cumulative = -1.85188e-07
DILUPBiCGStab:  Solving for epsilon, Initial residual = 2.233e-06, Final residual = 3.25764e-11, No Iterations 1
DILUPBiCGStab:  Solving for k, Initial residual = 4.10306e-06, Final residual = 6.34268e-11, No Iterations 1
ExecutionTime = 0.09 s  ClockTime = 0 s

Courant Number mean: 0.00528133 max: 0.0301504
Time = 710.38

diagonal:  Solving for rho, Initial residual = 0, Final residual = 0, No Iterations 0
DILUPBiCGStab:  Solving for Ux, Initial residual = 5.76158e-06, Final residual = 6.39128e-11, No Iterations 1
DILUPBiCGStab:  Solving for Uy, Initial residual = 4.22975e-06, Final residual = 4.30686e-11, No Iterations 1
DILUPBiCGStab:  Solving for h, Initial residual = 2.89211e-05, Final residual = 1.95178e-10, No Iterations 1
DICPCG:  Solving for p_rgh, Initial residual = 2.55469e-05, Final residual = 2.24151e-07, No Iterations 21
diagonal:  Solving for rho, Initial residual = 0, Final residual = 0, No Iterations 0
time step continuity errors : sum local = 1.55376e-11, global = 3.68687e-12, cumulative = -1.85184e-07
DICPCG:  Solving for p_rgh, Initial residual = 2.47064e-07, Final residual = 8.07828e-09, No Iterations 16
diagonal:  Solving for rho, Initial residual = 0, Final residual = 0, No Iterations 0
time step continuity errors : sum local = 6.0813e-13, global = -1.13905e-13, cumulative = -1.85184e-07
DILUPBiCGStab:  Solving for epsilon, Initial residual = 2.23127e-06, Final residual = 3.2561e-11, No Iterations 1
DILUPBiCGStab:  Solving for k, Initial residual = 4.10084e-06, Final residual = 6.3396e-11, No Iterations 1
ExecutionTime = 0.1 s  ClockTime = 0 s

Courant Number mean: 0.00528134 max: 0.0301504
Time = 710.39

diagonal:  Solving for rho, Initial residual = 0, Final residual = 0, No Iterations 0
DILUPBiCGStab:  Solving for Ux, Initial residual = 5.83356e-06, Final residual = 6.51311e-11, No Iterations 1
DILUPBiCGStab:  Solving for Uy, Initial residual = 4.28433e-06, Final residual = 4.3401e-11, No Iterations 1
DILUPBiCGStab:  Solving for h, Initial residual = 2.85785e-05, Final residual = 1.93297e-10, No Iterations 1
DICPCG:  Solving for p_rgh, Initial residual = 1.60292e-05, Final residual = 1.1619e-07, No Iterations 20
diagonal:  Solving for rho, Initial residual = 0, Final residual = 0, No Iterations 0
time step continuity errors : sum local = 9.47433e-12, global = 3.63484e-12, cumulative = -1.85181e-07
DICPCG:  Solving for p_rgh, Initial residual = 1.60105e-07, Final residual = 7.71316e-09, No Iterations 17
diagonal:  Solving for rho, Initial residual = 0, Final residual = 0, No Iterations 0
time step continuity errors : sum local = 5.68396e-13, global = 4.77483e-14, cumulative = -1.85181e-07
DILUPBiCGStab:  Solving for epsilon, Initial residual = 2.22968e-06, Final residual = 3.25463e-11, No Iterations 1
DILUPBiCGStab:  Solving for k, Initial residual = 4.09876e-06, Final residual = 6.33665e-11, No Iterations 1
ExecutionTime = 0.1 s  ClockTime = 0 s

Courant Number mean: 0.00528135 max: 0.0301503
Time = 710.4

diagonal:  Solving for rho, Initial residual = 0, Final residual = 0, No Iterations 0
DILUPBiCGStab:  Solving for Ux, Initial residual = 5.79939e-06, Final residual = 6.44478e-11, No Iterations 1
DILUPBiCGStab:  Solving for Uy, Initial residual = 4.28161e-06, Final residual = 4.32732e-11, No Iterations 1
DILUPBiCGStab:  Solving for h, Initial residual = 2.8236e-05, Final residual = 1.91431e-10, No Iterations 1
DICPCG:  Solving for p_rgh, Initial residual = 2.52815e-05, Final residual = 2.33499e-07, No Iterations 19
diagonal:  Solving for rho, Initial residual = 0, Final residual = 0, No Iterations 0
time step continuity errors : sum local = 1.6998e-11, global = 3.676e-12, cumulative = -1.85177e-07
DICPCG:  Solving for p_rgh, Initial residual = 3.04093e-07, Final residual = 7.7854e-09, No Iterations 16
diagonal:  Solving for rho, Initial residual = 0, Final residual = 0, No Iterations 0
time step continuity errors : sum local = 5.9531e-13, global = 1.95258e-13, cumulative = -1.85177e-07
DILUPBiCGStab:  Solving for epsilon, Initial residual = 2.22848e-06, Final residual = 3.25343e-11, No Iterations 1
DILUPBiCGStab:  Solving for k, Initial residual = 4.09709e-06, Final residual = 6.3342e-11, No Iterations 1
ExecutionTime = 0.1 s  ClockTime = 0 s

Courant Number mean: 0.00528136 max: 0.0301503
Time = 710.41

diagonal:  Solving for rho, Initial residual = 0, Final residual = 0, No Iterations 0
DILUPBiCGStab:  Solving for Ux, Initial residual = 5.68973e-06, Final residual = 6.22233e-11, No Iterations 1
DILUPBiCGStab:  Solving for Uy, Initial residual = 4.23288e-06, Final residual = 4.2797e-11, No Iterations 1
DILUPBiCGStab:  Solving for h, Initial residual = 2.79451e-05, Final residual = 1.89829e-10, No Iterations 1
DICPCG:  Solving for p_rgh, Initial residual = 3.48752e-05, Final residual = 3.41448e-07, No Iterations 20
diagonal:  Solving for rho, Initial residual = 0, Final residual = 0, No Iterations 0
time step continuity errors : sum local = 2.42053e-11, global = 4.02745e-12, cumulative = -1.85173e-07
DICPCG:  Solving for p_rgh, Initial residual = 4.38751e-07, Final residual = 8.42743e-09, No Iterations 17
diagonal:  Solving for rho, Initial residual = 0, Final residual = 0, No Iterations 0
time step continuity errors : sum local = 6.81645e-13, global = 2.80093e-13, cumulative = -1.85173e-07
DILUPBiCGStab:  Solving for epsilon, Initial residual = 2.2278e-06, Final residual = 3.25264e-11, No Iterations 1
DILUPBiCGStab:  Solving for k, Initial residual = 4.09603e-06, Final residual = 6.3325e-11, No Iterations 1
ExecutionTime = 0.1 s  ClockTime = 0 s

Courant Number mean: 0.00528137 max: 0.0301503
Time = 710.42

diagonal:  Solving for rho, Initial residual = 0, Final residual = 0, No Iterations 0
DILUPBiCGStab:  Solving for Ux, Initial residual = 5.56964e-06, Final residual = 5.90908e-11, No Iterations 1
DILUPBiCGStab:  Solving for Uy, Initial residual = 4.17881e-06, Final residual = 4.21927e-11, No Iterations 1
DILUPBiCGStab:  Solving for h, Initial residual = 2.77422e-05, Final residual = 1.88634e-10, No Iterations 1
DICPCG:  Solving for p_rgh, Initial residual = 4.15118e-05, Final residual = 2.15453e-07, No Iterations 21
diagonal:  Solving for rho, Initial residual = 0, Final residual = 0, No Iterations 0
time step continuity errors : sum local = 1.57898e-11, global = 3.6197e-12, cumulative = -1.85169e-07
DICPCG:  Solving for p_rgh, Initial residual = 3.35361e-07, Final residual = 7.14345e-09, No Iterations 17
diagonal:  Solving for rho, Initial residual = 0, Final residual = 0, No Iterations 0
time step continuity errors : sum local = 6.2547e-13, global = 3.32032e-13, cumulative = -1.85169e-07
DILUPBiCGStab:  Solving for epsilon, Initial residual = 2.22769e-06, Final residual = 3.25233e-11, No Iterations 1
DILUPBiCGStab:  Solving for k, Initial residual = 4.09563e-06, Final residual = 6.33164e-11, No Iterations 1
ExecutionTime = 0.11 s  ClockTime = 0 s

Courant Number mean: 0.00528138 max: 0.0301503
Time = 710.43

diagonal:  Solving for rho, Initial residual = 0, Final residual = 0, No Iterations 0
DILUPBiCGStab:  Solving for Ux, Initial residual = 5.48072e-06, Final residual = 5.56681e-11, No Iterations 1
DILUPBiCGStab:  Solving for Uy, Initial residual = 4.19307e-06, Final residual = 4.19274e-11, No Iterations 1
DILUPBiCGStab:  Solving for h, Initial residual = 2.76473e-05, Final residual = 1.8792e-10, No Iterations 1
DICPCG:  Solving for p_rgh, Initial residual = 4.13933e-05, Final residual = 2.12563e-07, No Iterations 21
diagonal:  Solving for rho, Initial residual = 0, Final residual = 0, No Iterations 0
time step continuity errors : sum local = 1.54943e-11, global = 3.58064e-12, cumulative = -1.85165e-07
DICPCG:  Solving for p_rgh, Initial residual = 3.16987e-07, Final residual = 6.71438e-09, No Iterations 17
diagonal:  Solving for rho, Initial residual = 0, Final residual = 0, No Iterations 0
time step continuity errors : sum local = 6.13446e-13, global = 3.32392e-13, cumulative = -1.85165e-07
DILUPBiCGStab:  Solving for epsilon, Initial residual = 2.22813e-06, Final residual = 3.25244e-11, No Iterations 1
DILUPBiCGStab:  Solving for k, Initial residual = 4.09587e-06, Final residual = 6.33158e-11, No Iterations 1
ExecutionTime = 0.11 s  ClockTime = 0 s

Courant Number mean: 0.0052814 max: 0.0301504
Time = 710.44

diagonal:  Solving for rho, Initial residual = 0, Final residual = 0, No Iterations 0
DILUPBiCGStab:  Solving for Ux, Initial residual = 5.48545e-06, Final residual = 5.32395e-11, No Iterations 1
DILUPBiCGStab:  Solving for Uy, Initial residual = 4.28097e-06, Final residual = 4.21999e-11, No Iterations 1
DILUPBiCGStab:  Solving for h, Initial residual = 2.766e-05, Final residual = 1.87688e-10, No Iterations 1
DICPCG:  Solving for p_rgh, Initial residual = 3.52724e-05, Final residual = 2.71764e-07, No Iterations 17
diagonal:  Solving for rho, Initial residual = 0, Final residual = 0, No Iterations 0
time step continuity errors : sum local = 1.89107e-11, global = 4.31042e-12, cumulative = -1.8516e-07
DICPCG:  Solving for p_rgh, Initial residual = 3.46346e-07, Final residual = 6.80534e-09, No Iterations 21
diagonal:  Solving for rho, Initial residual = 0, Final residual = 0, No Iterations 0
time step continuity errors : sum local = 5.65975e-13, global = 2.63822e-13, cumulative = -1.8516e-07
DILUPBiCGStab:  Solving for epsilon, Initial residual = 2.22898e-06, Final residual = 3.2529e-11, No Iterations 1
DILUPBiCGStab:  Solving for k, Initial residual = 4.09659e-06, Final residual = 6.33214e-11, No Iterations 1
ExecutionTime = 0.11 s  ClockTime = 0 s

Courant Number mean: 0.00528141 max: 0.0301504
Time = 710.45

diagonal:  Solving for rho, Initial residual = 0, Final residual = 0, No Iterations 0
DILUPBiCGStab:  Solving for Ux, Initial residual = 5.57127e-06, Final residual = 5.20349e-11, No Iterations 1
DILUPBiCGStab:  Solving for Uy, Initial residual = 4.41711e-06, Final residual = 4.32014e-11, No Iterations 1
DILUPBiCGStab:  Solving for h, Initial residual = 2.77635e-05, Final residual = 1.87865e-10, No Iterations 1
DICPCG:  Solving for p_rgh, Initial residual = 2.53934e-05, Final residual = 2.02287e-07, No Iterations 17
diagonal:  Solving for rho, Initial residual = 0, Final residual = 0, No Iterations 0
time step continuity errors : sum local = 1.46805e-11, global = 3.00924e-12, cumulative = -1.85157e-07
DICPCG:  Solving for p_rgh, Initial residual = 2.57635e-07, Final residual = 9.68456e-09, No Iterations 20
diagonal:  Solving for rho, Initial residual = 0, Final residual = 0, No Iterations 0
time step continuity errors : sum local = 6.96688e-13, global = 1.88535e-13, cumulative = -1.85157e-07
DILUPBiCGStab:  Solving for epsilon, Initial residual = 2.23007e-06, Final residual = 3.25355e-11, No Iterations 1
DILUPBiCGStab:  Solving for k, Initial residual = 4.09761e-06, Final residual = 6.33307e-11, No Iterations 1
ExecutionTime = 0.11 s  ClockTime = 0 s

Courant Number mean: 0.00528142 max: 0.0301505
Time = 710.46

diagonal:  Solving for rho, Initial residual = 0, Final residual = 0, No Iterations 0
DILUPBiCGStab:  Solving for Ux, Initial residual = 5.64661e-06, Final residual = 5.14276e-11, No Iterations 1
DILUPBiCGStab:  Solving for Uy, Initial residual = 4.52174e-06, Final residual = 4.39596e-11, No Iterations 1
DILUPBiCGStab:  Solving for h, Initial residual = 2.79296e-05, Final residual = 1.88327e-10, No Iterations 1
DICPCG:  Solving for p_rgh, Initial residual = 1.57822e-05, Final residual = 1.00911e-07, No Iterations 21
diagonal:  Solving for rho, Initial residual = 0, Final residual = 0, No Iterations 0
time step continuity errors : sum local = 8.63445e-12, global = 3.48318e-12, cumulative = -1.85153e-07
DICPCG:  Solving for p_rgh, Initial residual = 1.40074e-07, Final residual = 8.69241e-09, No Iterations 17
diagonal:  Solving for rho, Initial residual = 0, Final residual = 0, No Iterations 0
time step continuity errors : sum local = 6.26348e-13, global = 7.08954e-14, cumulative = -1.85153e-07
DILUPBiCGStab:  Solving for epsilon, Initial residual = 2.23122e-06, Final residual = 3.25424e-11, No Iterations 1
DILUPBiCGStab:  Solving for k, Initial residual = 4.0987e-06, Final residual = 6.33409e-11, No Iterations 1
ExecutionTime = 0.11 s  ClockTime = 0 s

Courant Number mean: 0.00528143 max: 0.0301506
Time = 710.47

diagonal:  Solving for rho, Initial residual = 0, Final residual = 0, No Iterations 0
DILUPBiCGStab:  Solving for Ux, Initial residual = 5.67308e-06, Final residual = 5.12892e-11, No Iterations 1
DILUPBiCGStab:  Solving for Uy, Initial residual = 4.55996e-06, Final residual = 4.42018e-11, No Iterations 1
DILUPBiCGStab:  Solving for h, Initial residual = 2.81247e-05, Final residual = 1.8893e-10, No Iterations 1
DICPCG:  Solving for p_rgh, Initial residual = 1.4223e-05, Final residual = 8.60211e-08, No Iterations 21
diagonal:  Solving for rho, Initial residual = 0, Final residual = 0, No Iterations 0
time step continuity errors : sum local = 7.61987e-12, global = 3.53723e-12, cumulative = -1.8515e-07
DICPCG:  Solving for p_rgh, Initial residual = 1.29007e-07, Final residual = 9.66176e-09, No Iterations 16
diagonal:  Solving for rho, Initial residual = 0, Final residual = 0, No Iterations 0
time step continuity errors : sum local = 6.87625e-13, global = -3.33329e-14, cumulative = -1.8515e-07
DILUPBiCGStab:  Solving for epsilon, Initial residual = 2.23227e-06, Final residual = 3.25484e-11, No Iterations 1
DILUPBiCGStab:  Solving for k, Initial residual = 4.09967e-06, Final residual = 6.33495e-11, No Iterations 1
ExecutionTime = 0.12 s  ClockTime = 0 s

Courant Number mean: 0.00528145 max: 0.0301507
Time = 710.48

diagonal:  Solving for rho, Initial residual = 0, Final residual = 0, No Iterations 0
DILUPBiCGStab:  Solving for Ux, Initial residual = 5.63946e-06, Final residual = 5.15013e-11, No Iterations 1
DILUPBiCGStab:  Solving for Uy, Initial residual = 4.53004e-06, Final residual = 4.3954e-11, No Iterations 1
DILUPBiCGStab:  Solving for h, Initial residual = 2.8313e-05, Final residual = 1.89512e-10, No Iterations 1
DICPCG:  Solving for p_rgh, Initial residual = 1.89751e-05, Final residual = 1.82711e-07, No Iterations 19
diagonal:  Solving for rho, Initial residual = 0, Final residual = 0, No Iterations 0
time step continuity errors : sum local = 1.34355e-11, global = 3.43987e-12, cumulative = -1.85146e-07
DICPCG:  Solving for p_rgh, Initial residual = 2.39403e-07, Final residual = 7.98294e-09, No Iterations 20
diagonal:  Solving for rho, Initial residual = 0, Final residual = 0, No Iterations 0
time step continuity errors : sum local = 5.92179e-13, global = -1.16085e-13, cumulative = -1.85147e-07
DILUPBiCGStab:  Solving for epsilon, Initial residual = 2.23307e-06, Final residual = 3.25524e-11, No Iterations 1
DILUPBiCGStab:  Solving for k, Initial residual = 4.10035e-06, Final residual = 6.33544e-11, No Iterations 1
ExecutionTime = 0.12 s  ClockTime = 0 s

Courant Number mean: 0.00528146 max: 0.0301507
Time = 710.49

diagonal:  Solving for rho, Initial residual = 0, Final residual = 0, No Iterations 0
DILUPBiCGStab:  Solving for Ux, Initial residual = 5.57359e-06, Final residual = 5.20936e-11, No Iterations 1
DILUPBiCGStab:  Solving for Uy, Initial residual = 4.44966e-06, Final residual = 4.33603e-11, No Iterations 1
DILUPBiCGStab:  Solving for h, Initial residual = 2.84657e-05, Final residual = 1.89953e-10, No Iterations 1
DICPCG:  Solving for p_rgh, Initial residual = 2.38596e-05, Final residual = 2.30154e-07, No Iterations 20
diagonal:  Solving for rho, Initial residual = 0, Final residual = 0, No Iterations 0
time step continuity errors : sum local = 1.64823e-11, global = 3.36229e-12, cumulative = -1.85143e-07
DICPCG:  Solving for p_rgh, Initial residual = 2.94835e-07, Final residual = 8.71473e-09, No Iterations 19
diagonal:  Solving for rho, Initial residual = 0, Final residual = 0, No Iterations 0
time step continuity errors : sum local = 6.63895e-13, global = -1.69148e-13, cumulative = -1.85143e-07
DILUPBiCGStab:  Solving for epsilon, Initial residual = 2.23355e-06, Final residual = 3.25538e-11, No Iterations 1
DILUPBiCGStab:  Solving for k, Initial residual = 4.10066e-06, Final residual = 6.33545e-11, No Iterations 1
ExecutionTime = 0.12 s  ClockTime = 0 s

Courant Number mean: 0.00528147 max: 0.0301508
Time = 710.5

diagonal:  Solving for rho, Initial residual = 0, Final residual = 0, No Iterations 0
DILUPBiCGStab:  Solving for Ux, Initial residual = 5.50858e-06, Final residual = 5.30292e-11, No Iterations 1
DILUPBiCGStab:  Solving for Uy, Initial residual = 4.34152e-06, Final residual = 4.25879e-11, No Iterations 1
DILUPBiCGStab:  Solving for h, Initial residual = 2.85615e-05, Final residual = 1.90148e-10, No Iterations 1
DICPCG:  Solving for p_rgh, Initial residual = 2.66991e-05, Final residual = 1.49793e-07, No Iterations 21
diagonal:  Solving for rho, Initial residual = 0, Final residual = 0, No Iterations 0
time step continuity errors : sum local = 1.11218e-11, global = 3.61209e-12, cumulative = -1.8514e-07
DICPCG:  Solving for p_rgh, Initial residual = 2.18946e-07, Final residual = 6.574e-09, No Iterations 19
diagonal:  Solving for rho, Initial residual = 0, Final residual = 0, No Iterations 0
time step continuity errors : sum local = 5.39279e-13, global = -2.0101e-13, cumulative = -1.8514e-07
DILUPBiCGStab:  Solving for epsilon, Initial residual = 2.23369e-06, Final residual = 3.25526e-11, No Iterations 1
DILUPBiCGStab:  Solving for k, Initial residual = 4.10056e-06, Final residual = 6.33495e-11, No Iterations 1
ExecutionTime = 0.12 s  ClockTime = 0 s

Courant Number mean: 0.00528148 max: 0.0301508
Time = 710.51

diagonal:  Solving for rho, Initial residual = 0, Final residual = 0, No Iterations 0
DILUPBiCGStab:  Solving for Ux, Initial residual = 5.46535e-06, Final residual = 5.42068e-11, No Iterations 1
DILUPBiCGStab:  Solving for Uy, Initial residual = 4.23355e-06, Final residual = 4.20014e-11, No Iterations 1
DILUPBiCGStab:  Solving for h, Initial residual = 2.85914e-05, Final residual = 1.90059e-10, No Iterations 1
DICPCG:  Solving for p_rgh, Initial residual = 2.57192e-05, Final residual = 2.39483e-07, No Iterations 20
diagonal:  Solving for rho, Initial residual = 0, Final residual = 0, No Iterations 0
time step continuity errors : sum local = 1.70695e-11, global = 3.26113e-12, cumulative = -1.85137e-07
DICPCG:  Solving for p_rgh, Initial residual = 2.96301e-07, Final residual = 9.94948e-09, No Iterations 20
diagonal:  Solving for rho, Initial residual = 0, Final residual = 0, No Iterations 0
time step continuity errors : sum local = 7.42695e-13, global = -1.92371e-13, cumulative = -1.85137e-07
DILUPBiCGStab:  Solving for epsilon, Initial residual = 2.23354e-06, Final residual = 3.25489e-11, No Iterations 1
DILUPBiCGStab:  Solving for k, Initial residual = 4.10009e-06, Final residual = 6.334e-11, No Iterations 1
ExecutionTime = 0.13 s  ClockTime = 0 s

Courant Number mean: 0.00528149 max: 0.0301508
Time = 710.52

diagonal:  Solving for rho, Initial residual = 0, Final residual = 0, No Iterations 0
DILUPBiCGStab:  Solving for Ux, Initial residual = 5.48328e-06, Final residual = 5.586e-11, No Iterations 1
DILUPBiCGStab:  Solving for Uy, Initial residual = 4.15369e-06, Final residual = 4.16533e-11, No Iterations 1
DILUPBiCGStab:  Solving for h, Initial residual = 2.85578e-05, Final residual = 1.89689e-10, No Iterations 1
DICPCG:  Solving for p_rgh, Initial residual = 2.1679e-05, Final residual = 1.77474e-07, No Iterations 16
diagonal:  Solving for rho, Initial residual = 0, Final residual = 0, No Iterations 0
time step continuity errors : sum local = 1.34689e-11, global = 3.49056e-12, cumulative = -1.85133e-07
DICPCG:  Solving for p_rgh, Initial residual = 2.3014e-07, Final residual = 6.94056e-09, No Iterations 18
diagonal:  Solving for rho, Initial residual = 0, Final residual = 0, No Iterations 0
time step continuity errors : sum local = 5.44117e-13, global = -1.3717e-13, cumulative = -1.85134e-07
DILUPBiCGStab:  Solving for epsilon, Initial residual = 2.23316e-06, Final residual = 3.25434e-11, No Iterations 1
DILUPBiCGStab:  Solving for k, Initial residual = 4.09936e-06, Final residual = 6.3327e-11, No Iterations 1
ExecutionTime = 0.13 s  ClockTime = 0 s

Courant Number mean: 0.0052815 max: 0.0301509
Time = 710.53

diagonal:  Solving for rho, Initial residual = 0, Final residual = 0, No Iterations 0
DILUPBiCGStab:  Solving for Ux, Initial residual = 5.51536e-06, Final residual = 5.72586e-11, No Iterations 1
DILUPBiCGStab:  Solving for Uy, Initial residual = 4.13311e-06, Final residual = 4.17174e-11, No Iterations 1
DILUPBiCGStab:  Solving for h, Initial residual = 2.84728e-05, Final residual = 1.89088e-10, No Iterations 1
DICPCG:  Solving for p_rgh, Initial residual = 1.63493e-05, Final residual = 1.5619e-07, No Iterations 20
diagonal:  Solving for rho, Initial residual = 0, Final residual = 0, No Iterations 0
time step continuity errors : sum local = 1.13049e-11, global = 3.67554e-12, cumulative = -1.8513e-07
DICPCG:  Solving for p_rgh, Initial residual = 1.8401e-07, Final residual = 8.42984e-09, No Iterations 15
diagonal:  Solving for rho, Initial residual = 0, Final residual = 0, No Iterations 0
time step continuity errors : sum local = 6.08347e-13, global = -8.40198e-14, cumulative = -1.8513e-07
DILUPBiCGStab:  Solving for epsilon, Initial residual = 2.23268e-06, Final residual = 3.25369e-11, No Iterations 1
DILUPBiCGStab:  Solving for k, Initial residual = 4.09848e-06, Final residual = 6.3312e-11, No Iterations 1
ExecutionTime = 0.13 s  ClockTime = 0 s

Courant Number mean: 0.00528151 max: 0.0301509
Time = 710.54

diagonal:  Solving for rho, Initial residual = 0, Final residual = 0, No Iterations 0
DILUPBiCGStab:  Solving for Ux, Initial residual = 5.53644e-06, Final residual = 5.80232e-11, No Iterations 1
DILUPBiCGStab:  Solving for Uy, Initial residual = 4.13492e-06, Final residual = 4.18282e-11, No Iterations 1
DILUPBiCGStab:  Solving for h, Initial residual = 2.83556e-05, Final residual = 1.88341e-10, No Iterations 1
DICPCG:  Solving for p_rgh, Initial residual = 1.20292e-05, Final residual = 9.37571e-08, No Iterations 21
diagonal:  Solving for rho, Initial residual = 0, Final residual = 0, No Iterations 0
time step continuity errors : sum local = 7.59263e-12, global = 3.61147e-12, cumulative = -1.85126e-07
DICPCG:  Solving for p_rgh, Initial residual = 1.1719e-07, Final residual = 7.70219e-09, No Iterations 17
diagonal:  Solving for rho, Initial residual = 0, Final residual = 0, No Iterations 0
time step continuity errors : sum local = 5.44515e-13, global = 6.49614e-15, cumulative = -1.85126e-07
DILUPBiCGStab:  Solving for epsilon, Initial residual = 2.2322e-06, Final residual = 3.25302e-11, No Iterations 1
DILUPBiCGStab:  Solving for k, Initial residual = 4.09758e-06, Final residual = 6.32967e-11, No Iterations 1
ExecutionTime = 0.13 s  ClockTime = 0 s

Courant Number mean: 0.00528152 max: 0.0301508
Time = 710.55

diagonal:  Solving for rho, Initial residual = 0, Final residual = 0, No Iterations 0
DILUPBiCGStab:  Solving for Ux, Initial residual = 5.53911e-06, Final residual = 5.8112e-11, No Iterations 1
DILUPBiCGStab:  Solving for Uy, Initial residual = 4.14171e-06, Final residual = 4.18829e-11, No Iterations 1
DILUPBiCGStab:  Solving for h, Initial residual = 2.82276e-05, Final residual = 1.87546e-10, No Iterations 1
DICPCG:  Solving for p_rgh, Initial residual = 1.1893e-05, Final residual = 9.35699e-08, No Iterations 19
diagonal:  Solving for rho, Initial residual = 0, Final residual = 0, No Iterations 0
time step continuity errors : sum local = 7.49183e-12, global = 3.5299e-12, cumulative = -1.85123e-07
DICPCG:  Solving for p_rgh, Initial residual = 1.2671e-07, Final residual = 8.49559e-09, No Iterations 16
diagonal:  Solving for rho, Initial residual = 0, Final residual = 0, No Iterations 0
time step continuity errors : sum local = 6.04137e-13, global = 6.6845e-14, cumulative = -1.85123e-07
DILUPBiCGStab:  Solving for epsilon, Initial residual = 2.23181e-06, Final residual = 3.25242e-11, No Iterations 1
DILUPBiCGStab:  Solving for k, Initial residual = 4.09679e-06, Final residual = 6.32826e-11, No Iterations 1
ExecutionTime = 0.13 s  ClockTime = 0 s

Courant Number mean: 0.00528154 max: 0.0301509
Time = 710.56

diagonal:  Solving for rho, Initial residual = 0, Final residual = 0, No Iterations 0
DILUPBiCGStab:  Solving for Ux, Initial residual = 5.52478e-06, Final residual = 5.75963e-11, No Iterations 1
DILUPBiCGStab:  Solving for Uy, Initial residual = 4.14558e-06, Final residual = 4.18445e-11, No Iterations 1
DILUPBiCGStab:  Solving for h, Initial residual = 2.81086e-05, Final residual = 1.86796e-10, No Iterations 1
DICPCG:  Solving for p_rgh, Initial residual = 1.41475e-05, Final residual = 1.07654e-07, No Iterations 20
diagonal:  Solving for rho, Initial residual = 0, Final residual = 0, No Iterations 0
time step continuity errors : sum local = 8.89469e-12, global = 3.61118e-12, cumulative = -1.85119e-07
DICPCG:  Solving for p_rgh, Initial residual = 1.57114e-07, Final residual = 6.17011e-09, No Iterations 16
diagonal:  Solving for rho, Initial residual = 0, Final residual = 0, No Iterations 0
time step continuity errors : sum local = 4.59824e-13, global = 1.25812e-13, cumulative = -1.85119e-07
DILUPBiCGStab:  Solving for epsilon, Initial residual = 2.2316e-06, Final residual = 3.25194e-11, No Iterations 1
DILUPBiCGStab:  Solving for k, Initial residual = 4.09618e-06, Final residual = 6.32708e-11, No Iterations 1
ExecutionTime = 0.14 s  ClockTime = 0 s

Courant Number mean: 0.00528155 max: 0.0301509
Time = 710.57

diagonal:  Solving for rho, Initial residual = 0, Final residual = 0, No Iterations 0
DILUPBiCGStab:  Solving for Ux, Initial residual = 5.49984e-06, Final residual = 5.66331e-11, No Iterations 1
DILUPBiCGStab:  Solving for Uy, Initial residual = 4.1546e-06, Final residual = 4.17678e-11, No Iterations 1
DILUPBiCGStab:  Solving for h, Initial residual = 2.80153e-05, Final residual = 1.86164e-10, No Iterations 1
DICPCG:  Solving for p_rgh, Initial residual = 1.65949e-05, Final residual = 1.18377e-07, No Iterations 21
diagonal:  Solving for rho, Initial residual = 0, Final residual = 0, No Iterations 0
time step continuity errors : sum local = 9.57635e-12, global = 3.60425e-12, cumulative = -1.85115e-07
DICPCG:  Solving for p_rgh, Initial residual = 1.73019e-07, Final residual = 8.43184e-09, No Iterations 16
diagonal:  Solving for rho, Initial residual = 0, Final residual = 0, No Iterations 0
time step continuity errors : sum local = 6.00412e-13, global = 1.5124e-13, cumulative = -1.85115e-07
DILUPBiCGStab:  Solving for epsilon, Initial residual = 2.23159e-06, Final residual = 3.25161e-11, No Iterations 1
DILUPBiCGStab:  Solving for k, Initial residual = 4.09581e-06, Final residual = 6.32618e-11, No Iterations 1
ExecutionTime = 0.14 s  ClockTime = 0 s

Courant Number mean: 0.00528156 max: 0.0301509
Time = 710.58

diagonal:  Solving for rho, Initial residual = 0, Final residual = 0, No Iterations 0
DILUPBiCGStab:  Solving for Ux, Initial residual = 5.47461e-06, Final residual = 5.54507e-11, No Iterations 1
DILUPBiCGStab:  Solving for Uy, Initial residual = 4.17213e-06, Final residual = 4.17454e-11, No Iterations 1
DILUPBiCGStab:  Solving for h, Initial residual = 2.79581e-05, Final residual = 1.85698e-10, No Iterations 1
DICPCG:  Solving for p_rgh, Initial residual = 1.76313e-05, Final residual = 1.22908e-07, No Iterations 21
diagonal:  Solving for rho, Initial residual = 0, Final residual = 0, No Iterations 0
time step continuity errors : sum local = 9.79418e-12, global = 3.62977e-12, cumulative = -1.85112e-07
DICPCG:  Solving for p_rgh, Initial residual = 1.76652e-07, Final residual = 7.85055e-09, No Iterations 16
diagonal:  Solving for rho, Initial residual = 0, Final residual = 0, No Iterations 0
time step continuity errors : sum local = 5.80621e-13, global = 1.52165e-13, cumulative = -1.85111e-07
DILUPBiCGStab:  Solving for epsilon, Initial residual = 2.23179e-06, Final residual = 3.25145e-11, No Iterations 1
DILUPBiCGStab:  Solving for k, Initial residual = 4.09568e-06, Final residual = 6.32559e-11, No Iterations 1
ExecutionTime = 0.14 s  ClockTime = 0 s

Courant Number mean: 0.00528157 max: 0.0301509
Time = 710.59

diagonal:  Solving for rho, Initial residual = 0, Final residual = 0, No Iterations 0
DILUPBiCGStab:  Solving for Ux, Initial residual = 5.45614e-06, Final residual = 5.4306e-11, No Iterations 1
DILUPBiCGStab:  Solving for Uy, Initial residual = 4.20179e-06, Final residual = 4.18043e-11, No Iterations 1
DILUPBiCGStab:  Solving for h, Initial residual = 2.79409e-05, Final residual = 1.85414e-10, No Iterations 1
DICPCG:  Solving for p_rgh, Initial residual = 1.67434e-05, Final residual = 1.62969e-07, No Iterations 18
[...]

Courant Number mean: 0.00529188 max: 0.0301778
Time = 719.86

diagonal:  Solving for rho, Initial residual = 0, Final residual = 0, No Iterations 0
DILUPBiCGStab:  Solving for Ux, Initial residual = 5.24837e-06, Final residual = 5.19348e-11, No Iterations 1
DILUPBiCGStab:  Solving for Uy, Initial residual = 4.01304e-06, Final residual = 3.96323e-11, No Iterations 1
DILUPBiCGStab:  Solving for h, Initial residual = 2.72997e-05, Final residual = 1.68167e-10, No Iterations 1
DICPCG:  Solving for p_rgh, Initial residual = 3.83802e-06, Final residual = 3.24989e-08, No Iterations 19
diagonal:  Solving for rho, Initial residual = 0, Final residual = 0, No Iterations 0
time step continuity errors : sum local = 4.49699e-12, global = 3.5067e-12, cumulative = -1.81764e-07
DICPCG:  Solving for p_rgh, Initial residual = 6.80527e-08, Final residual = 7.09523e-09, No Iterations 16
diagonal:  Solving for rho, Initial residual = 0, Final residual = 0, No Iterations 0
time step continuity errors : sum local = 5.21465e-13, global = 1.08751e-14, cumulative = -1.81764e-07
DILUPBiCGStab:  Solving for epsilon, Initial residual = 2.10068e-06, Final residual = 3.06139e-11, No Iterations 1
DILUPBiCGStab:  Solving for k, Initial residual = 3.86369e-06, Final residual = 5.99217e-11, No Iterations 1
ExecutionTime = 2.2 s  ClockTime = 2 s

Courant Number mean: 0.00529189 max: 0.0301779
Time = 719.87

diagonal:  Solving for rho, Initial residual = 0, Final residual = 0, No Iterations 0
DILUPBiCGStab:  Solving for Ux, Initial residual = 5.24814e-06, Final residual = 5.19321e-11, No Iterations 1
DILUPBiCGStab:  Solving for Uy, Initial residual = 4.01278e-06, Final residual = 3.9629e-11, No Iterations 1
DILUPBiCGStab:  Solving for h, Initial residual = 2.7299e-05, Final residual = 1.6816e-10, No Iterations 1
DICPCG:  Solving for p_rgh, Initial residual = 3.83737e-06, Final residual = 3.24472e-08, No Iterations 19
diagonal:  Solving for rho, Initial residual = 0, Final residual = 0, No Iterations 0
time step continuity errors : sum local = 4.49581e-12, global = 3.50796e-12, cumulative = -1.8176e-07
DICPCG:  Solving for p_rgh, Initial residual = 6.82148e-08, Final residual = 7.00743e-09, No Iterations 16
diagonal:  Solving for rho, Initial residual = 0, Final residual = 0, No Iterations 0
time step continuity errors : sum local = 5.10002e-13, global = 9.02122e-15, cumulative = -1.8176e-07
DILUPBiCGStab:  Solving for epsilon, Initial residual = 2.10057e-06, Final residual = 3.06118e-11, No Iterations 1
DILUPBiCGStab:  Solving for k, Initial residual = 3.86346e-06, Final residual = 5.99182e-11, No Iterations 1
ExecutionTime = 2.2 s  ClockTime = 2 s

Courant Number mean: 0.0052919 max: 0.0301779
Time = 719.88

diagonal:  Solving for rho, Initial residual = 0, Final residual = 0, No Iterations 0
DILUPBiCGStab:  Solving for Ux, Initial residual = 5.2479e-06, Final residual = 5.19294e-11, No Iterations 1
DILUPBiCGStab:  Solving for Uy, Initial residual = 4.01252e-06, Final residual = 3.96258e-11, No Iterations 1
DILUPBiCGStab:  Solving for h, Initial residual = 2.72983e-05, Final residual = 1.68152e-10, No Iterations 1
DICPCG:  Solving for p_rgh, Initial residual = 3.83765e-06, Final residual = 3.26084e-08, No Iterations 19
diagonal:  Solving for rho, Initial residual = 0, Final residual = 0, No Iterations 0
time step continuity errors : sum local = 4.49498e-12, global = 3.51055e-12, cumulative = -1.81757e-07
DICPCG:  Solving for p_rgh, Initial residual = 6.82495e-08, Final residual = 7.06806e-09, No Iterations 16
diagonal:  Solving for rho, Initial residual = 0, Final residual = 0, No Iterations 0
time step continuity errors : sum local = 5.20524e-13, global = 8.03113e-15, cumulative = -1.81757e-07
DILUPBiCGStab:  Solving for epsilon, Initial residual = 2.10045e-06, Final residual = 3.06098e-11, No Iterations 1
DILUPBiCGStab:  Solving for k, Initial residual = 3.86323e-06, Final residual = 5.99146e-11, No Iterations 1
ExecutionTime = 2.2 s  ClockTime = 2 s

Courant Number mean: 0.00529191 max: 0.0301779
Time = 719.89

diagonal:  Solving for rho, Initial residual = 0, Final residual = 0, No Iterations 0
DILUPBiCGStab:  Solving for Ux, Initial residual = 5.24767e-06, Final residual = 5.19267e-11, No Iterations 1
DILUPBiCGStab:  Solving for Uy, Initial residual = 4.01225e-06, Final residual = 3.96225e-11, No Iterations 1
DILUPBiCGStab:  Solving for h, Initial residual = 2.72976e-05, Final residual = 1.68145e-10, No Iterations 1
DICPCG:  Solving for p_rgh, Initial residual = 3.83666e-06, Final residual = 3.2603e-08, No Iterations 19
diagonal:  Solving for rho, Initial residual = 0, Final residual = 0, No Iterations 0
time step continuity errors : sum local = 4.50328e-12, global = 3.51456e-12, cumulative = -1.81753e-07
DICPCG:  Solving for p_rgh, Initial residual = 6.81647e-08, Final residual = 7.08505e-09, No Iterations 16
diagonal:  Solving for rho, Initial residual = 0, Final residual = 0, No Iterations 0
time step continuity errors : sum local = 5.08976e-13, global = 1.27282e-14, cumulative = -1.81753e-07
DILUPBiCGStab:  Solving for epsilon, Initial residual = 2.10033e-06, Final residual = 3.06077e-11, No Iterations 1
DILUPBiCGStab:  Solving for k, Initial residual = 3.863e-06, Final residual = 5.99111e-11, No Iterations 1
ExecutionTime = 2.21 s  ClockTime = 2 s

Courant Number mean: 0.00529192 max: 0.030178
Time = 719.9

diagonal:  Solving for rho, Initial residual = 0, Final residual = 0, No Iterations 0
DILUPBiCGStab:  Solving for Ux, Initial residual = 5.24743e-06, Final residual = 5.19239e-11, No Iterations 1
DILUPBiCGStab:  Solving for Uy, Initial residual = 4.01199e-06, Final residual = 3.96192e-11, No Iterations 1
DILUPBiCGStab:  Solving for h, Initial residual = 2.72969e-05, Final residual = 1.68138e-10, No Iterations 1
DICPCG:  Solving for p_rgh, Initial residual = 3.83636e-06, Final residual = 3.24945e-08, No Iterations 19
diagonal:  Solving for rho, Initial residual = 0, Final residual = 0, No Iterations 0
time step continuity errors : sum local = 4.48915e-12, global = 3.51504e-12, cumulative = -1.8175e-07
DICPCG:  Solving for p_rgh, Initial residual = 6.80602e-08, Final residual = 7.02802e-09, No Iterations 16
diagonal:  Solving for rho, Initial residual = 0, Final residual = 0, No Iterations 0
time step continuity errors : sum local = 5.12414e-13, global = 1.41358e-14, cumulative = -1.8175e-07
DILUPBiCGStab:  Solving for epsilon, Initial residual = 2.10021e-06, Final residual = 3.06056e-11, No Iterations 1
DILUPBiCGStab:  Solving for k, Initial residual = 3.86277e-06, Final residual = 5.99076e-11, No Iterations 1
ExecutionTime = 2.21 s  ClockTime = 2 s

Courant Number mean: 0.00529193 max: 0.030178
Time = 719.91

diagonal:  Solving for rho, Initial residual = 0, Final residual = 0, No Iterations 0
DILUPBiCGStab:  Solving for Ux, Initial residual = 5.24719e-06, Final residual = 5.19212e-11, No Iterations 1
DILUPBiCGStab:  Solving for Uy, Initial residual = 4.01173e-06, Final residual = 3.9616e-11, No Iterations 1
DILUPBiCGStab:  Solving for h, Initial residual = 2.72962e-05, Final residual = 1.68131e-10, No Iterations 1
DICPCG:  Solving for p_rgh, Initial residual = 3.8364e-06, Final residual = 3.25145e-08, No Iterations 19
diagonal:  Solving for rho, Initial residual = 0, Final residual = 0, No Iterations 0
time step continuity errors : sum local = 4.50728e-12, global = 3.51585e-12, cumulative = -1.81746e-07
DICPCG:  Solving for p_rgh, Initial residual = 6.81693e-08, Final residual = 7.07474e-09, No Iterations 16
diagonal:  Solving for rho, Initial residual = 0, Final residual = 0, No Iterations 0
time step continuity errors : sum local = 5.03772e-13, global = 5.43257e-15, cumulative = -1.81746e-07
DILUPBiCGStab:  Solving for epsilon, Initial residual = 2.1001e-06, Final residual = 3.06035e-11, No Iterations 1
DILUPBiCGStab:  Solving for k, Initial residual = 3.86254e-06, Final residual = 5.9904e-11, No Iterations 1
ExecutionTime = 2.21 s  ClockTime = 2 s

Courant Number mean: 0.00529194 max: 0.030178
Time = 719.92

diagonal:  Solving for rho, Initial residual = 0, Final residual = 0, No Iterations 0
DILUPBiCGStab:  Solving for Ux, Initial residual = 5.24696e-06, Final residual = 5.19185e-11, No Iterations 1
DILUPBiCGStab:  Solving for Uy, Initial residual = 4.01146e-06, Final residual = 3.96128e-11, No Iterations 1
DILUPBiCGStab:  Solving for h, Initial residual = 2.72955e-05, Final residual = 1.68123e-10, No Iterations 1
DICPCG:  Solving for p_rgh, Initial residual = 3.83594e-06, Final residual = 3.25267e-08, No Iterations 19
diagonal:  Solving for rho, Initial residual = 0, Final residual = 0, No Iterations 0
time step continuity errors : sum local = 4.49906e-12, global = 3.51969e-12, cumulative = -1.81743e-07
DICPCG:  Solving for p_rgh, Initial residual = 6.80656e-08, Final residual = 7.02331e-09, No Iterations 16
diagonal:  Solving for rho, Initial residual = 0, Final residual = 0, No Iterations 0
time step continuity errors : sum local = 5.09711e-13, global = 1.72769e-14, cumulative = -1.81743e-07
DILUPBiCGStab:  Solving for epsilon, Initial residual = 2.09998e-06, Final residual = 3.06014e-11, No Iterations 1
DILUPBiCGStab:  Solving for k, Initial residual = 3.86231e-06, Final residual = 5.99005e-11, No Iterations 1
ExecutionTime = 2.21 s  ClockTime = 2 s

Courant Number mean: 0.00529195 max: 0.030178
Time = 719.93

diagonal:  Solving for rho, Initial residual = 0, Final residual = 0, No Iterations 0
DILUPBiCGStab:  Solving for Ux, Initial residual = 5.24672e-06, Final residual = 5.19158e-11, No Iterations 1
DILUPBiCGStab:  Solving for Uy, Initial residual = 4.0112e-06, Final residual = 3.96095e-11, No Iterations 1
DILUPBiCGStab:  Solving for h, Initial residual = 2.72948e-05, Final residual = 1.68116e-10, No Iterations 1
DICPCG:  Solving for p_rgh, Initial residual = 3.83556e-06, Final residual = 3.25e-08, No Iterations 19
diagonal:  Solving for rho, Initial residual = 0, Final residual = 0, No Iterations 0
time step continuity errors : sum local = 4.49312e-12, global = 3.51072e-12, cumulative = -1.81739e-07
DICPCG:  Solving for p_rgh, Initial residual = 6.82124e-08, Final residual = 7.10973e-09, No Iterations 16
diagonal:  Solving for rho, Initial residual = 0, Final residual = 0, No Iterations 0
time step continuity errors : sum local = 5.14632e-13, global = 1.23903e-14, cumulative = -1.81739e-07
DILUPBiCGStab:  Solving for epsilon, Initial residual = 2.09986e-06, Final residual = 3.05994e-11, No Iterations 1
DILUPBiCGStab:  Solving for k, Initial residual = 3.86208e-06, Final residual = 5.9897e-11, No Iterations 1
ExecutionTime = 2.21 s  ClockTime = 2 s

Courant Number mean: 0.00529196 max: 0.0301781
Time = 719.94

diagonal:  Solving for rho, Initial residual = 0, Final residual = 0, No Iterations 0
DILUPBiCGStab:  Solving for Ux, Initial residual = 5.24649e-06, Final residual = 5.19131e-11, No Iterations 1
DILUPBiCGStab:  Solving for Uy, Initial residual = 4.01093e-06, Final residual = 3.96062e-11, No Iterations 1
DILUPBiCGStab:  Solving for h, Initial residual = 2.72941e-05, Final residual = 1.68109e-10, No Iterations 1
DICPCG:  Solving for p_rgh, Initial residual = 3.83552e-06, Final residual = 3.24849e-08, No Iterations 19
diagonal:  Solving for rho, Initial residual = 0, Final residual = 0, No Iterations 0
time step continuity errors : sum local = 4.49008e-12, global = 3.50743e-12, cumulative = -1.81736e-07
DICPCG:  Solving for p_rgh, Initial residual = 6.81399e-08, Final residual = 7.0744e-09, No Iterations 16
diagonal:  Solving for rho, Initial residual = 0, Final residual = 0, No Iterations 0
time step continuity errors : sum local = 5.28694e-13, global = 2.85609e-15, cumulative = -1.81736e-07
DILUPBiCGStab:  Solving for epsilon, Initial residual = 2.09974e-06, Final residual = 3.05973e-11, No Iterations 1
DILUPBiCGStab:  Solving for k, Initial residual = 3.86185e-06, Final residual = 5.98935e-11, No Iterations 1
ExecutionTime = 2.22 s  ClockTime = 2 s

Courant Number mean: 0.00529197 max: 0.0301781
Time = 719.95

diagonal:  Solving for rho, Initial residual = 0, Final residual = 0, No Iterations 0
DILUPBiCGStab:  Solving for Ux, Initial residual = 5.24625e-06, Final residual = 5.19103e-11, No Iterations 1
DILUPBiCGStab:  Solving for Uy, Initial residual = 4.01068e-06, Final residual = 3.9603e-11, No Iterations 1
DILUPBiCGStab:  Solving for h, Initial residual = 2.72934e-05, Final residual = 1.68102e-10, No Iterations 1
DICPCG:  Solving for p_rgh, Initial residual = 3.83515e-06, Final residual = 3.25273e-08, No Iterations 19
diagonal:  Solving for rho, Initial residual = 0, Final residual = 0, No Iterations 0
time step continuity errors : sum local = 4.49179e-12, global = 3.50631e-12, cumulative = -1.81732e-07
DICPCG:  Solving for p_rgh, Initial residual = 6.79075e-08, Final residual = 7.00862e-09, No Iterations 16
diagonal:  Solving for rho, Initial residual = 0, Final residual = 0, No Iterations 0
time step continuity errors : sum local = 5.1719e-13, global = 1.54172e-14, cumulative = -1.81732e-07
DILUPBiCGStab:  Solving for epsilon, Initial residual = 2.09963e-06, Final residual = 3.05952e-11, No Iterations 1
DILUPBiCGStab:  Solving for k, Initial residual = 3.86162e-06, Final residual = 5.98899e-11, No Iterations 1
ExecutionTime = 2.22 s  ClockTime = 2 s

Courant Number mean: 0.00529198 max: 0.0301781
Time = 719.96

diagonal:  Solving for rho, Initial residual = 0, Final residual = 0, No Iterations 0
DILUPBiCGStab:  Solving for Ux, Initial residual = 5.24602e-06, Final residual = 5.19076e-11, No Iterations 1
DILUPBiCGStab:  Solving for Uy, Initial residual = 4.01041e-06, Final residual = 3.95998e-11, No Iterations 1
DILUPBiCGStab:  Solving for h, Initial residual = 2.72927e-05, Final residual = 1.68094e-10, No Iterations 1
DICPCG:  Solving for p_rgh, Initial residual = 3.83429e-06, Final residual = 3.25114e-08, No Iterations 19
diagonal:  Solving for rho, Initial residual = 0, Final residual = 0, No Iterations 0
time step continuity errors : sum local = 4.49492e-12, global = 3.50745e-12, cumulative = -1.81729e-07
DICPCG:  Solving for p_rgh, Initial residual = 6.81683e-08, Final residual = 7.00203e-09, No Iterations 16
diagonal:  Solving for rho, Initial residual = 0, Final residual = 0, No Iterations 0
time step continuity errors : sum local = 5.0752e-13, global = 6.7706e-15, cumulative = -1.81729e-07
DILUPBiCGStab:  Solving for epsilon, Initial residual = 2.09951e-06, Final residual = 3.05932e-11, No Iterations 1
DILUPBiCGStab:  Solving for k, Initial residual = 3.8614e-06, Final residual = 5.98864e-11, No Iterations 1
ExecutionTime = 2.22 s  ClockTime = 2 s

Courant Number mean: 0.00529199 max: 0.0301782
Time = 719.97

diagonal:  Solving for rho, Initial residual = 0, Final residual = 0, No Iterations 0
DILUPBiCGStab:  Solving for Ux, Initial residual = 5.24578e-06, Final residual = 5.19048e-11, No Iterations 1
DILUPBiCGStab:  Solving for Uy, Initial residual = 4.01015e-06, Final residual = 3.95965e-11, No Iterations 1
DILUPBiCGStab:  Solving for h, Initial residual = 2.7292e-05, Final residual = 1.68087e-10, No Iterations 1
DICPCG:  Solving for p_rgh, Initial residual = 3.83469e-06, Final residual = 3.25536e-08, No Iterations 19
diagonal:  Solving for rho, Initial residual = 0, Final residual = 0, No Iterations 0
time step continuity errors : sum local = 4.49674e-12, global = 3.5108e-12, cumulative = -1.81725e-07
DICPCG:  Solving for p_rgh, Initial residual = 6.80864e-08, Final residual = 7.12851e-09, No Iterations 16
diagonal:  Solving for rho, Initial residual = 0, Final residual = 0, No Iterations 0
time step continuity errors : sum local = 5.0388e-13, global = 2.09473e-14, cumulative = -1.81725e-07
DILUPBiCGStab:  Solving for epsilon, Initial residual = 2.09939e-06, Final residual = 3.05911e-11, No Iterations 1
DILUPBiCGStab:  Solving for k, Initial residual = 3.86117e-06, Final residual = 5.98829e-11, No Iterations 1
ExecutionTime = 2.22 s  ClockTime = 2 s

Courant Number mean: 0.005292 max: 0.0301782
Time = 719.98

diagonal:  Solving for rho, Initial residual = 0, Final residual = 0, No Iterations 0
DILUPBiCGStab:  Solving for Ux, Initial residual = 5.24555e-06, Final residual = 5.19021e-11, No Iterations 1
DILUPBiCGStab:  Solving for Uy, Initial residual = 4.00988e-06, Final residual = 3.95933e-11, No Iterations 1
DILUPBiCGStab:  Solving for h, Initial residual = 2.72913e-05, Final residual = 1.6808e-10, No Iterations 1
DICPCG:  Solving for p_rgh, Initial residual = 3.83378e-06, Final residual = 3.24772e-08, No Iterations 19
diagonal:  Solving for rho, Initial residual = 0, Final residual = 0, No Iterations 0
time step continuity errors : sum local = 4.51165e-12, global = 3.51292e-12, cumulative = -1.81722e-07
DICPCG:  Solving for p_rgh, Initial residual = 6.84809e-08, Final residual = 7.09206e-09, No Iterations 16
diagonal:  Solving for rho, Initial residual = 0, Final residual = 0, No Iterations 0
time step continuity errors : sum local = 5.11995e-13, global = 3.68741e-15, cumulative = -1.81722e-07
DILUPBiCGStab:  Solving for epsilon, Initial residual = 2.09927e-06, Final residual = 3.0589e-11, No Iterations 1
DILUPBiCGStab:  Solving for k, Initial residual = 3.86094e-06, Final residual = 5.98794e-11, No Iterations 1
ExecutionTime = 2.23 s  ClockTime = 2 s

Courant Number mean: 0.00529201 max: 0.0301782
Time = 719.99

diagonal:  Solving for rho, Initial residual = 0, Final residual = 0, No Iterations 0
DILUPBiCGStab:  Solving for Ux, Initial residual = 5.24531e-06, Final residual = 5.18994e-11, No Iterations 1
DILUPBiCGStab:  Solving for Uy, Initial residual = 4.00962e-06, Final residual = 3.959e-11, No Iterations 1
DILUPBiCGStab:  Solving for h, Initial residual = 2.72906e-05, Final residual = 1.68073e-10, No Iterations 1
DICPCG:  Solving for p_rgh, Initial residual = 3.83425e-06, Final residual = 3.23914e-08, No Iterations 19
diagonal:  Solving for rho, Initial residual = 0, Final residual = 0, No Iterations 0
time step continuity errors : sum local = 4.49225e-12, global = 3.50918e-12, cumulative = -1.81718e-07
DICPCG:  Solving for p_rgh, Initial residual = 6.80985e-08, Final residual = 7.05093e-09, No Iterations 16
diagonal:  Solving for rho, Initial residual = 0, Final residual = 0, No Iterations 0
time step continuity errors : sum local = 5.04711e-13, global = 1.11402e-14, cumulative = -1.81718e-07
DILUPBiCGStab:  Solving for epsilon, Initial residual = 2.09916e-06, Final residual = 3.0587e-11, No Iterations 1
DILUPBiCGStab:  Solving for k, Initial residual = 3.86071e-06, Final residual = 5.98759e-11, No Iterations 1
ExecutionTime = 2.23 s  ClockTime = 2 s

Courant Number mean: 0.00529202 max: 0.0301782
Time = 720

diagonal:  Solving for rho, Initial residual = 0, Final residual = 0, No Iterations 0
DILUPBiCGStab:  Solving for Ux, Initial residual = 5.24508e-06, Final residual = 5.18966e-11, No Iterations 1
DILUPBiCGStab:  Solving for Uy, Initial residual = 4.00936e-06, Final residual = 3.95868e-11, No Iterations 1
DILUPBiCGStab:  Solving for h, Initial residual = 2.72899e-05, Final residual = 1.68065e-10, No Iterations 1
DICPCG:  Solving for p_rgh, Initial residual = 3.83356e-06, Final residual = 3.2487e-08, No Iterations 19
diagonal:  Solving for rho, Initial residual = 0, Final residual = 0, No Iterations 0
time step continuity errors : sum local = 4.49906e-12, global = 3.52287e-12, cumulative = -1.81715e-07
DICPCG:  Solving for p_rgh, Initial residual = 6.80784e-08, Final residual = 7.05868e-09, No Iterations 16
diagonal:  Solving for rho, Initial residual = 0, Final residual = 0, No Iterations 0
time step continuity errors : sum local = 5.15558e-13, global = 2.30654e-14, cumulative = -1.81715e-07
DILUPBiCGStab:  Solving for epsilon, Initial residual = 2.09904e-06, Final residual = 3.05849e-11, No Iterations 1
DILUPBiCGStab:  Solving for k, Initial residual = 3.86048e-06, Final residual = 5.98724e-11, No Iterations 1
ExecutionTime = 2.23 s  ClockTime = 2 s

End

