/*---------------------------------------------------------------------------*\
  =========                 |
  \\      /  F ield         | OpenFOAM: The Open Source CFD Toolbox
   \\    /   O peration     | Website:  https://openfoam.org
    \\  /    A nd           | Version:  6
     \\/     M anipulation  |
\*---------------------------------------------------------------------------*/
Build  : 6-e29811f5dff8
Exec   : buoyantPimpleFoam -case /home/mamitsu/OpenFOAM/mamitsu-6/run/optiair_room/Case/case2
Date   : Dec 04 2020
Time   : 19:09:25
Host   : "mamitsu-desktop"
PID    : 23217
I/O    : uncollated
Case   : /home/mamitsu/OpenFOAM/mamitsu-6/run/optiair_room/Case/case2
nProcs : 1
sigFpe : Enabling floating point exception trapping (FOAM_SIGFPE).
fileModificationChecking : Monitoring run-time modified files using timeStampMaster (fileModificationSkew 10)
allowSystemOperations : Allowing user-supplied system call operations

// * * * * * * * * * * * * * * * * * * * * * * * * * * * * * * * * * * * * * //
Create time

Create mesh for time = 0


PIMPLE: No convergence criteria found


PIMPLE: Operating solver in PISO mode

Reading thermophysical properties

Selecting thermodynamics package
{
    type            heRhoThermo;
    mixture         pureMixture;
    transport       const;
    thermo          hConst;
    equationOfState perfectGas;
    specie          specie;
    energy          sensibleEnthalpy;
}

Reading field U

Reading/calculating face flux field phi

Creating turbulence model

Selecting turbulence model type RAS
Selecting RAS turbulence model kEpsilon
RAS
{
    RASModel        kEpsilon;
    turbulence      on;
    printCoeffs     on;
    Cmu             0.09;
    C1              1.44;
    C2              1.92;
    C3              0;
    sigmak          1;
    sigmaEps        1.3;
}


Reading g

Reading hRef
Calculating field g.h

Reading field p_rgh

Creating field dpdt

Creating field kinetic energy K

No MRF models present

Radiation model not active: radiationProperties not found
Selecting radiationModel none
No finite volume options present
Courant Number mean: 3.583e-05 max: 0.016446

Starting time loop

Courant Number mean: 3.583e-05 max: 0.016446
Time = 0.01

diagonal:  Solving for rho, Initial residual = 0, Final residual = 0, No Iterations 0
DILUPBiCGStab:  Solving for Ux, Initial residual = 1, Final residual = 3.81764e-07, No Iterations 1
DILUPBiCGStab:  Solving for Uy, Initial residual = 1, Final residual = 1.87265e-07, No Iterations 1
DILUPBiCGStab:  Solving for h, Initial residual = 1, Final residual = 4.22474e-07, No Iterations 1
DICPCG:  Solving for p_rgh, Initial residual = 0.971014, Final residual = 0.00624204, No Iterations 22
diagonal:  Solving for rho, Initial residual = 0, Final residual = 0, No Iterations 0
time step continuity errors : sum local = 1.02704e-05, global = 3.48948e-07, cumulative = 3.48948e-07
DICPCG:  Solving for p_rgh, Initial residual = 0.102625, Final residual = 3.93488e-09, No Iterations 40
diagonal:  Solving for rho, Initial residual = 0, Final residual = 0, No Iterations 0
time step continuity errors : sum local = 8.37299e-09, global = -2.40826e-09, cumulative = 3.46539e-07
DILUPBiCGStab:  Solving for epsilon, Initial residual = 0.030751, Final residual = 7.1891e-09, No Iterations 1
DILUPBiCGStab:  Solving for k, Initial residual = 1, Final residual = 4.27109e-07, No Iterations 1
ExecutionTime = 0.01 s  ClockTime = 0 s

Courant Number mean: 0.000844392 max: 0.0312194
Time = 0.02

diagonal:  Solving for rho, Initial residual = 0, Final residual = 0, No Iterations 0
DILUPBiCGStab:  Solving for Ux, Initial residual = 0.368971, Final residual = 4.93261e-08, No Iterations 1
DILUPBiCGStab:  Solving for Uy, Initial residual = 0.439214, Final residual = 7.15268e-08, No Iterations 1
DILUPBiCGStab:  Solving for h, Initial residual = 0.413973, Final residual = 9.0222e-08, No Iterations 1
DICPCG:  Solving for p_rgh, Initial residual = 0.275115, Final residual = 0.00237263, No Iterations 24
diagonal:  Solving for rho, Initial residual = 0, Final residual = 0, No Iterations 0
time step continuity errors : sum local = 1.89391e-06, global = 3.86676e-08, cumulative = 3.85207e-07
DICPCG:  Solving for p_rgh, Initial residual = 0.0195749, Final residual = 7.82445e-09, No Iterations 38
diagonal:  Solving for rho, Initial residual = 0, Final residual = 0, No Iterations 0
time step continuity errors : sum local = 1.99818e-09, global = -6.64023e-10, cumulative = 3.84543e-07
DILUPBiCGStab:  Solving for epsilon, Initial residual = 0.00795917, Final residual = 9.2012e-07, No Iterations 1
DILUPBiCGStab:  Solving for k, Initial residual = 0.371518, Final residual = 4.20033e-08, No Iterations 1
ExecutionTime = 0.01 s  ClockTime = 0 s

Courant Number mean: 0.000684354 max: 0.0315742
Time = 0.03

diagonal:  Solving for rho, Initial residual = 0, Final residual = 0, No Iterations 0
DILUPBiCGStab:  Solving for Ux, Initial residual = 0.223049, Final residual = 2.2116e-08, No Iterations 1
DILUPBiCGStab:  Solving for Uy, Initial residual = 0.465674, Final residual = 7.19011e-08, No Iterations 1
DILUPBiCGStab:  Solving for h, Initial residual = 0.40878, Final residual = 5.81655e-08, No Iterations 1
DICPCG:  Solving for p_rgh, Initial residual = 0.0877426, Final residual = 0.000406878, No Iterations 24
diagonal:  Solving for rho, Initial residual = 0, Final residual = 0, No Iterations 0
time step continuity errors : sum local = 2.66769e-07, global = -1.82374e-09, cumulative = 3.82719e-07
DICPCG:  Solving for p_rgh, Initial residual = 0.00616747, Final residual = 6.99995e-09, No Iterations 36
diagonal:  Solving for rho, Initial residual = 0, Final residual = 0, No Iterations 0
time step continuity errors : sum local = 2.17273e-09, global = -1.58471e-09, cumulative = 3.81135e-07
DILUPBiCGStab:  Solving for epsilon, Initial residual = 0.00644988, Final residual = 6.43279e-07, No Iterations 1
DILUPBiCGStab:  Solving for k, Initial residual = 0.205608, Final residual = 2.01455e-08, No Iterations 1
ExecutionTime = 0.01 s  ClockTime = 0 s

Courant Number mean: 0.000736195 max: 0.0393413
Time = 0.04

diagonal:  Solving for rho, Initial residual = 0, Final residual = 0, No Iterations 0
DILUPBiCGStab:  Solving for Ux, Initial residual = 0.323136, Final residual = 4.56465e-08, No Iterations 1
DILUPBiCGStab:  Solving for Uy, Initial residual = 0.215462, Final residual = 2.78041e-08, No Iterations 1
DILUPBiCGStab:  Solving for h, Initial residual = 0.264835, Final residual = 2.68744e-08, No Iterations 1
DICPCG:  Solving for p_rgh, Initial residual = 0.0754314, Final residual = 0.000695817, No Iterations 22
diagonal:  Solving for rho, Initial residual = 0, Final residual = 0, No Iterations 0
time step continuity errors : sum local = 4.05e-07, global = 1.63532e-09, cumulative = 3.8277e-07
DICPCG:  Solving for p_rgh, Initial residual = 0.00501839, Final residual = 6.73545e-09, No Iterations 36
diagonal:  Solving for rho, Initial residual = 0, Final residual = 0, No Iterations 0
time step continuity errors : sum local = 3.93725e-09, global = -3.93725e-09, cumulative = 3.78833e-07
DILUPBiCGStab:  Solving for epsilon, Initial residual = 0.00538926, Final residual = 5.08785e-07, No Iterations 1
DILUPBiCGStab:  Solving for k, Initial residual = 0.142483, Final residual = 1.27471e-08, No Iterations 1
ExecutionTime = 0.01 s  ClockTime = 0 s

Courant Number mean: 0.00112511 max: 0.0446512
Time = 0.05

diagonal:  Solving for rho, Initial residual = 0, Final residual = 0, No Iterations 0
DILUPBiCGStab:  Solving for Ux, Initial residual = 0.270439, Final residual = 4.13606e-08, No Iterations 1
DILUPBiCGStab:  Solving for Uy, Initial residual = 0.0863942, Final residual = 8.69322e-09, No Iterations 1
DILUPBiCGStab:  Solving for h, Initial residual = 0.33275, Final residual = 2.70772e-08, No Iterations 1
DICPCG:  Solving for p_rgh, Initial residual = 0.101306, Final residual = 0.000889333, No Iterations 20
diagonal:  Solving for rho, Initial residual = 0, Final residual = 0, No Iterations 0
time step continuity errors : sum local = 4.30276e-07, global = -3.16605e-09, cumulative = 3.75667e-07
DICPCG:  Solving for p_rgh, Initial residual = 0.00343454, Final residual = 8.80526e-09, No Iterations 36
diagonal:  Solving for rho, Initial residual = 0, Final residual = 0, No Iterations 0
time step continuity errors : sum local = 5.7354e-09, global = -5.7354e-09, cumulative = 3.69931e-07
DILUPBiCGStab:  Solving for epsilon, Initial residual = 0.00460281, Final residual = 4.30685e-07, No Iterations 1
DILUPBiCGStab:  Solving for k, Initial residual = 0.109228, Final residual = 9.07487e-09, No Iterations 1
ExecutionTime = 0.02 s  ClockTime = 0 s

Courant Number mean: 0.00138235 max: 0.0476632
Time = 0.06

diagonal:  Solving for rho, Initial residual = 0, Final residual = 0, No Iterations 0
DILUPBiCGStab:  Solving for Ux, Initial residual = 0.152322, Final residual = 2.3093e-08, No Iterations 1
DILUPBiCGStab:  Solving for Uy, Initial residual = 0.049659, Final residual = 4.735e-09, No Iterations 1
DILUPBiCGStab:  Solving for h, Initial residual = 0.415945, Final residual = 3.8425e-08, No Iterations 1
DICPCG:  Solving for p_rgh, Initial residual = 0.160171, Final residual = 0.00148823, No Iterations 20
diagonal:  Solving for rho, Initial residual = 0, Final residual = 0, No Iterations 0
time step continuity errors : sum local = 5.03214e-07, global = -4.53153e-09, cumulative = 3.654e-07
DICPCG:  Solving for p_rgh, Initial residual = 0.0107171, Final residual = 6.92984e-09, No Iterations 36
diagonal:  Solving for rho, Initial residual = 0, Final residual = 0, No Iterations 0
time step continuity errors : sum local = 6.40795e-09, global = -6.40795e-09, cumulative = 3.58992e-07
DILUPBiCGStab:  Solving for epsilon, Initial residual = 0.00400132, Final residual = 3.81781e-07, No Iterations 1
DILUPBiCGStab:  Solving for k, Initial residual = 0.0886789, Final residual = 6.87425e-09, No Iterations 1
ExecutionTime = 0.02 s  ClockTime = 0 s

Courant Number mean: 0.0014252 max: 0.0484208
Time = 0.07

diagonal:  Solving for rho, Initial residual = 0, Final residual = 0, No Iterations 0
DILUPBiCGStab:  Solving for Ux, Initial residual = 0.0237732, Final residual = 1.66703e-09, No Iterations 1
DILUPBiCGStab:  Solving for Uy, Initial residual = 0.016964, Final residual = 1.24628e-09, No Iterations 1
DILUPBiCGStab:  Solving for h, Initial residual = 0.461463, Final residual = 4.61157e-08, No Iterations 1
DICPCG:  Solving for p_rgh, Initial residual = 0.316729, Final residual = 0.00246723, No Iterations 20
diagonal:  Solving for rho, Initial residual = 0, Final residual = 0, No Iterations 0
time step continuity errors : sum local = 4.08832e-07, global = -2.40167e-09, cumulative = 3.5659e-07
DICPCG:  Solving for p_rgh, Initial residual = 0.0121479, Final residual = 3.84657e-09, No Iterations 38
diagonal:  Solving for rho, Initial residual = 0, Final residual = 0, No Iterations 0
time step continuity errors : sum local = 6.06485e-09, global = -6.06485e-09, cumulative = 3.50525e-07
DILUPBiCGStab:  Solving for epsilon, Initial residual = 0.00352963, Final residual = 3.50133e-07, No Iterations 1
DILUPBiCGStab:  Solving for k, Initial residual = 0.0746911, Final residual = 5.47172e-09, No Iterations 1
ExecutionTime = 0.02 s  ClockTime = 0 s

Courant Number mean: 0.0012964 max: 0.0468737
Time = 0.08

diagonal:  Solving for rho, Initial residual = 0, Final residual = 0, No Iterations 0
DILUPBiCGStab:  Solving for Ux, Initial residual = 0.0806436, Final residual = 1.20749e-08, No Iterations 1
DILUPBiCGStab:  Solving for Uy, Initial residual = 0.0251144, Final residual = 2.32705e-09, No Iterations 1
DILUPBiCGStab:  Solving for h, Initial residual = 0.44323, Final residual = 4.26949e-08, No Iterations 1
DICPCG:  Solving for p_rgh, Initial residual = 0.402634, Final residual = 0.00348356, No Iterations 20
diagonal:  Solving for rho, Initial residual = 0, Final residual = 0, No Iterations 0
time step continuity errors : sum local = 3.81097e-07, global = 7.509e-10, cumulative = 3.51276e-07
DICPCG:  Solving for p_rgh, Initial residual = 0.00364856, Final residual = 8.26126e-09, No Iterations 36
diagonal:  Solving for rho, Initial residual = 0, Final residual = 0, No Iterations 0
time step continuity errors : sum local = 4.86913e-09, global = -4.86913e-09, cumulative = 3.46407e-07
DILUPBiCGStab:  Solving for epsilon, Initial residual = 0.00315194, Final residual = 3.28599e-07, No Iterations 1
DILUPBiCGStab:  Solving for k, Initial residual = 0.0645396, Final residual = 4.48894e-09, No Iterations 1
ExecutionTime = 0.02 s  ClockTime = 0 s

Courant Number mean: 0.0010747 max: 0.0433265
Time = 0.09

diagonal:  Solving for rho, Initial residual = 0, Final residual = 0, No Iterations 0
DILUPBiCGStab:  Solving for Ux, Initial residual = 0.14506, Final residual = 2.09509e-08, No Iterations 1
DILUPBiCGStab:  Solving for Uy, Initial residual = 0.0576276, Final residual = 6.25286e-09, No Iterations 1
DILUPBiCGStab:  Solving for h, Initial residual = 0.36356, Final residual = 3.07879e-08, No Iterations 1
DICPCG:  Solving for p_rgh, Initial residual = 0.134183, Final residual = 0.000825371, No Iterations 20
diagonal:  Solving for rho, Initial residual = 0, Final residual = 0, No Iterations 0
time step continuity errors : sum local = 1.83174e-07, global = 1.10284e-09, cumulative = 3.4751e-07
DICPCG:  Solving for p_rgh, Initial residual = 0.00143703, Final residual = 7.67726e-09, No Iterations 35
diagonal:  Solving for rho, Initial residual = 0, Final residual = 0, No Iterations 0
time step continuity errors : sum local = 3.07617e-09, global = -3.07617e-09, cumulative = 3.44434e-07
DILUPBiCGStab:  Solving for epsilon, Initial residual = 0.00284294, Final residual = 3.12073e-07, No Iterations 1
DILUPBiCGStab:  Solving for k, Initial residual = 0.0568543, Final residual = 3.77801e-09, No Iterations 1
ExecutionTime = 0.03 s  ClockTime = 0 s

Courant Number mean: 0.000832521 max: 0.0385533
Time = 0.1

diagonal:  Solving for rho, Initial residual = 0, Final residual = 0, No Iterations 0
DILUPBiCGStab:  Solving for Ux, Initial residual = 0.19018, Final residual = 2.54005e-08, No Iterations 1
DILUPBiCGStab:  Solving for Uy, Initial residual = 0.088271, Final residual = 8.99403e-09, No Iterations 1
DILUPBiCGStab:  Solving for h, Initial residual = 0.20659, Final residual = 1.59919e-08, No Iterations 1
DICPCG:  Solving for p_rgh, Initial residual = 0.0441209, Final residual = 0.000408946, No Iterations 21
diagonal:  Solving for rho, Initial residual = 0, Final residual = 0, No Iterations 0
time step continuity errors : sum local = 1.15107e-07, global = 1.25185e-09, cumulative = 3.45685e-07
DICPCG:  Solving for p_rgh, Initial residual = 0.00051001, Final residual = 8.8242e-09, No Iterations 32
diagonal:  Solving for rho, Initial residual = 0, Final residual = 0, No Iterations 0
time step continuity errors : sum local = 1.04317e-09, global = -1.04317e-09, cumulative = 3.44642e-07
DILUPBiCGStab:  Solving for epsilon, Initial residual = 0.00258445, Final residual = 2.97277e-07, No Iterations 1
DILUPBiCGStab:  Solving for k, Initial residual = 0.0508308, Final residual = 3.25194e-09, No Iterations 1
ExecutionTime = 0.03 s  ClockTime = 0 s

Courant Number mean: 0.000630779 max: 0.0335372
Time = 0.11

diagonal:  Solving for rho, Initial residual = 0, Final residual = 0, No Iterations 0
DILUPBiCGStab:  Solving for Ux, Initial residual = 0.219111, Final residual = 2.7717e-08, No Iterations 1
DILUPBiCGStab:  Solving for Uy, Initial residual = 0.111394, Final residual = 1.05969e-08, No Iterations 1
DILUPBiCGStab:  Solving for h, Initial residual = 0.0734263, Final residual = 1.1172e-08, No Iterations 1
DICPCG:  Solving for p_rgh, Initial residual = 0.0355667, Final residual = 0.000225444, No Iterations 22
diagonal:  Solving for rho, Initial residual = 0, Final residual = 0, No Iterations 0
time step continuity errors : sum local = 6.64891e-08, global = 4.02164e-10, cumulative = 3.45044e-07
DICPCG:  Solving for p_rgh, Initial residual = 0.000757493, Final residual = 8.81153e-09, No Iterations 34
diagonal:  Solving for rho, Initial residual = 0, Final residual = 0, No Iterations 0
time step continuity errors : sum local = 8.72908e-10, global = 8.70876e-10, cumulative = 3.45915e-07
DILUPBiCGStab:  Solving for epsilon, Initial residual = 0.00236915, Final residual = 2.83793e-07, No Iterations 1
DILUPBiCGStab:  Solving for k, Initial residual = 0.0460592, Final residual = 2.87636e-09, No Iterations 1
ExecutionTime = 0.03 s  ClockTime = 0 s

Courant Number mean: 0.000630417 max: 0.0314306
Time = 0.12

diagonal:  Solving for rho, Initial residual = 0, Final residual = 0, No Iterations 0
DILUPBiCGStab:  Solving for Ux, Initial residual = 0.217334, Final residual = 2.72929e-08, No Iterations 1
DILUPBiCGStab:  Solving for Uy, Initial residual = 0.113907, Final residual = 1.02697e-08, No Iterations 1
DILUPBiCGStab:  Solving for h, Initial residual = 0.0558058, Final residual = 9.57256e-09, No Iterations 1
DICPCG:  Solving for p_rgh, Initial residual = 0.0776427, Final residual = 0.000676016, No Iterations 17
diagonal:  Solving for rho, Initial residual = 0, Final residual = 0, No Iterations 0
time step continuity errors : sum local = 1.80291e-07, global = 2.07481e-09, cumulative = 3.4799e-07
DICPCG:  Solving for p_rgh, Initial residual = 0.00206448, Final residual = 4.91322e-09, No Iterations 36
diagonal:  Solving for rho, Initial residual = 0, Final residual = 0, No Iterations 0
time step continuity errors : sum local = 2.38471e-09, global = 2.38471e-09, cumulative = 3.50375e-07
DILUPBiCGStab:  Solving for epsilon, Initial residual = 0.00218261, Final residual = 2.69358e-07, No Iterations 1
DILUPBiCGStab:  Solving for k, Initial residual = 0.0421331, Final residual = 2.5852e-09, No Iterations 1
ExecutionTime = 0.03 s  ClockTime = 0 s

Courant Number mean: 0.000717079 max: 0.0314551
Time = 0.13

diagonal:  Solving for rho, Initial residual = 0, Final residual = 0, No Iterations 0
DILUPBiCGStab:  Solving for Ux, Initial residual = 0.166014, Final residual = 2.11284e-08, No Iterations 1
DILUPBiCGStab:  Solving for Uy, Initial residual = 0.0915274, Final residual = 7.68488e-09, No Iterations 1
DILUPBiCGStab:  Solving for h, Initial residual = 0.099012, Final residual = 1.05211e-08, No Iterations 1
DICPCG:  Solving for p_rgh, Initial residual = 0.132217, Final residual = 0.00066533, No Iterations 20
diagonal:  Solving for rho, Initial residual = 0, Final residual = 0, No Iterations 0
time step continuity errors : sum local = 1.39699e-07, global = 1.52865e-09, cumulative = 3.51904e-07
DICPCG:  Solving for p_rgh, Initial residual = 0.00446059, Final residual = 5.86235e-09, No Iterations 37
diagonal:  Solving for rho, Initial residual = 0, Final residual = 0, No Iterations 0
time step continuity errors : sum local = 3.32574e-09, global = 3.32574e-09, cumulative = 3.55229e-07
DILUPBiCGStab:  Solving for epsilon, Initial residual = 0.00201709, Final residual = 2.53712e-07, No Iterations 1
DILUPBiCGStab:  Solving for k, Initial residual = 0.0388455, Final residual = 2.3361e-09, No Iterations 1
ExecutionTime = 0.04 s  ClockTime = 0 s

Courant Number mean: 0.000771525 max: 0.0314798
Time = 0.14

diagonal:  Solving for rho, Initial residual = 0, Final residual = 0, No Iterations 0
DILUPBiCGStab:  Solving for Ux, Initial residual = 0.0913467, Final residual = 1.18275e-08, No Iterations 1
DILUPBiCGStab:  Solving for Uy, Initial residual = 0.0523576, Final residual = 3.81512e-09, No Iterations 1
DILUPBiCGStab:  Solving for h, Initial residual = 0.117551, Final residual = 1.12887e-08, No Iterations 1
DICPCG:  Solving for p_rgh, Initial residual = 0.247914, Final residual = 0.00156714, No Iterations 20
diagonal:  Solving for rho, Initial residual = 0, Final residual = 0, No Iterations 0
time step continuity errors : sum local = 1.97631e-07, global = 2.32213e-09, cumulative = 3.57551e-07
DICPCG:  Solving for p_rgh, Initial residual = 0.021378, Final residual = 9.47208e-09, No Iterations 38
diagonal:  Solving for rho, Initial residual = 0, Final residual = 0, No Iterations 0
time step continuity errors : sum local = 3.63168e-09, global = 3.63168e-09, cumulative = 3.61183e-07
DILUPBiCGStab:  Solving for epsilon, Initial residual = 0.00187264, Final residual = 2.37004e-07, No Iterations 1
DILUPBiCGStab:  Solving for k, Initial residual = 0.0360582, Final residual = 2.11403e-09, No Iterations 1
ExecutionTime = 0.04 s  ClockTime = 0 s

Courant Number mean: 0.000777635 max: 0.0315045
Time = 0.15

diagonal:  Solving for rho, Initial residual = 0, Final residual = 0, No Iterations 0
DILUPBiCGStab:  Solving for Ux, Initial residual = 0.00994872, Final residual = 8.74746e-10, No Iterations 1
DILUPBiCGStab:  Solving for Uy, Initial residual = 0.00981795, Final residual = 4.89152e-10, No Iterations 1
DILUPBiCGStab:  Solving for h, Initial residual = 0.11732, Final residual = 1.10751e-08, No Iterations 1
DICPCG:  Solving for p_rgh, Initial residual = 0.643453, Final residual = 0.00450921, No Iterations 20
diagonal:  Solving for rho, Initial residual = 0, Final residual = 0, No Iterations 0
time step continuity errors : sum local = 2.07179e-07, global = 2.35149e-09, cumulative = 3.63535e-07
DICPCG:  Solving for p_rgh, Initial residual = 0.00415284, Final residual = 5.43942e-09, No Iterations 37
diagonal:  Solving for rho, Initial residual = 0, Final residual = 0, No Iterations 0
time step continuity errors : sum local = 3.34092e-09, global = 3.34092e-09, cumulative = 3.66875e-07
DILUPBiCGStab:  Solving for epsilon, Initial residual = 0.00174965, Final residual = 2.20605e-07, No Iterations 1
DILUPBiCGStab:  Solving for k, Initial residual = 0.0336653, Final residual = 1.93417e-09, No Iterations 1
ExecutionTime = 0.04 s  ClockTime = 0 s

Courant Number mean: 0.000739885 max: 0.0315293
Time = 0.16

diagonal:  Solving for rho, Initial residual = 0, Final residual = 0, No Iterations 0
DILUPBiCGStab:  Solving for Ux, Initial residual = 0.0760503, Final residual = 8.91116e-09, No Iterations 1
DILUPBiCGStab:  Solving for Uy, Initial residual = 0.0319971, Final residual = 3.88571e-09, No Iterations 1
DILUPBiCGStab:  Solving for h, Initial residual = 0.10319, Final residual = 9.2347e-09, No Iterations 1
DICPCG:  Solving for p_rgh, Initial residual = 0.181747, Final residual = 0.00175091, No Iterations 14
diagonal:  Solving for rho, Initial residual = 0, Final residual = 0, No Iterations 0
time step continuity errors : sum local = 2.27193e-07, global = -3.90201e-10, cumulative = 3.66485e-07
DICPCG:  Solving for p_rgh, Initial residual = 0.00217106, Final residual = 5.13601e-09, No Iterations 36
diagonal:  Solving for rho, Initial residual = 0, Final residual = 0, No Iterations 0
time step continuity errors : sum local = 2.57607e-09, global = 2.57607e-09, cumulative = 3.69061e-07
DILUPBiCGStab:  Solving for epsilon, Initial residual = 0.0016446, Final residual = 2.05013e-07, No Iterations 1
DILUPBiCGStab:  Solving for k, Initial residual = 0.0315852, Final residual = 1.78366e-09, No Iterations 1
ExecutionTime = 0.04 s  ClockTime = 0 s

Courant Number mean: 0.000677032 max: 0.031554
Time = 0.17

diagonal:  Solving for rho, Initial residual = 0, Final residual = 0, No Iterations 0
DILUPBiCGStab:  Solving for Ux, Initial residual = 0.138934, Final residual = 1.60709e-08, No Iterations 1
DILUPBiCGStab:  Solving for Uy, Initial residual = 0.057902, Final residual = 6.11046e-09, No Iterations 1
DILUPBiCGStab:  Solving for h, Initial residual = 0.079652, Final residual = 6.71737e-09, No Iterations 1
DICPCG:  Solving for p_rgh, Initial residual = 0.077807, Final residual = 0.000563885, No Iterations 20
diagonal:  Solving for rho, Initial residual = 0, Final residual = 0, No Iterations 0
time step continuity errors : sum local = 1.06756e-07, global = -7.43504e-10, cumulative = 3.68318e-07
DICPCG:  Solving for p_rgh, Initial residual = 0.000857699, Final residual = 9.94331e-09, No Iterations 34
diagonal:  Solving for rho, Initial residual = 0, Final residual = 0, No Iterations 0
time step continuity errors : sum local = 1.51422e-09, global = 1.51422e-09, cumulative = 3.69832e-07
DILUPBiCGStab:  Solving for epsilon, Initial residual = 0.00155279, Final residual = 1.90669e-07, No Iterations 1
DILUPBiCGStab:  Solving for k, Initial residual = 0.0297553, Final residual = 1.6528e-09, No Iterations 1
ExecutionTime = 0.05 s  ClockTime = 0 s

Courant Number mean: 0.000614417 max: 0.0315785
Time = 0.18

diagonal:  Solving for rho, Initial residual = 0, Final residual = 0, No Iterations 0
DILUPBiCGStab:  Solving for Ux, Initial residual = 0.165403, Final residual = 1.85786e-08, No Iterations 1
DILUPBiCGStab:  Solving for Uy, Initial residual = 0.0668011, Final residual = 6.34649e-09, No Iterations 1
DILUPBiCGStab:  Solving for h, Initial residual = 0.051164, Final residual = 5.01606e-09, No Iterations 1
DICPCG:  Solving for p_rgh, Initial residual = 0.0221951, Final residual = 0.000185242, No Iterations 22
diagonal:  Solving for rho, Initial residual = 0, Final residual = 0, No Iterations 0
time step continuity errors : sum local = 4.05521e-08, global = -1.49017e-10, cumulative = 3.69683e-07
DICPCG:  Solving for p_rgh, Initial residual = 0.000229986, Final residual = 4.95153e-09, No Iterations 31
diagonal:  Solving for rho, Initial residual = 0, Final residual = 0, No Iterations 0
time step continuity errors : sum local = 3.60222e-10, global = 3.60222e-10, cumulative = 3.70043e-07
DILUPBiCGStab:  Solving for epsilon, Initial residual = 0.00147008, Final residual = 1.78528e-07, No Iterations 1
DILUPBiCGStab:  Solving for k, Initial residual = 0.0281244, Final residual = 1.54683e-09, No Iterations 1
ExecutionTime = 0.05 s  ClockTime = 0 s

Courant Number mean: 0.000647484 max: 0.0334902
Time = 0.19

diagonal:  Solving for rho, Initial residual = 0, Final residual = 0, No Iterations 0
DILUPBiCGStab:  Solving for Ux, Initial residual = 0.147459, Final residual = 1.60831e-08, No Iterations 1
DILUPBiCGStab:  Solving for Uy, Initial residual = 0.061961, Final residual = 5.44801e-09, No Iterations 1
DILUPBiCGStab:  Solving for h, Initial residual = 0.0224304, Final residual = 2.80094e-09, No Iterations 1
DICPCG:  Solving for p_rgh, Initial residual = 0.0326143, Final residual = 0.000260389, No Iterations 21
diagonal:  Solving for rho, Initial residual = 0, Final residual = 0, No Iterations 0
time step continuity errors : sum local = 5.7827e-08, global = 3.83349e-10, cumulative = 3.70427e-07
DICPCG:  Solving for p_rgh, Initial residual = 0.000709628, Final residual = 7.97697e-09, No Iterations 34
diagonal:  Solving for rho, Initial residual = 0, Final residual = 0, No Iterations 0
time step continuity errors : sum local = 6.96256e-10, global = -6.95569e-10, cumulative = 3.69731e-07
DILUPBiCGStab:  Solving for epsilon, Initial residual = 0.00139581, Final residual = 1.68453e-07, No Iterations 1
DILUPBiCGStab:  Solving for k, Initial residual = 0.0266662, Final residual = 1.46326e-09, No Iterations 1
ExecutionTime = 0.05 s  ClockTime = 0 s

Courant Number mean: 0.000743078 max: 0.0359283
Time = 0.2

diagonal:  Solving for rho, Initial residual = 0, Final residual = 0, No Iterations 0
DILUPBiCGStab:  Solving for Ux, Initial residual = 0.113011, Final residual = 1.19143e-08, No Iterations 1
DILUPBiCGStab:  Solving for Uy, Initial residual = 0.0496296, Final residual = 4.12936e-09, No Iterations 1
DILUPBiCGStab:  Solving for h, Initial residual = 0.0297488, Final residual = 3.42791e-09, No Iterations 1
DICPCG:  Solving for p_rgh, Initial residual = 0.0633607, Final residual = 0.000436285, No Iterations 18
diagonal:  Solving for rho, Initial residual = 0, Final residual = 0, No Iterations 0
time step continuity errors : sum local = 8.81213e-08, global = -1.28218e-09, cumulative = 3.68449e-07
DICPCG:  Solving for p_rgh, Initial residual = 0.00156658, Final residual = 9.13709e-09, No Iterations 35
diagonal:  Solving for rho, Initial residual = 0, Final residual = 0, No Iterations 0
time step continuity errors : sum local = 1.50266e-09, global = -1.50266e-09, cumulative = 3.66946e-07
DILUPBiCGStab:  Solving for epsilon, Initial residual = 0.00132588, Final residual = 1.59635e-07, No Iterations 1
DILUPBiCGStab:  Solving for k, Initial residual = 0.0253611, Final residual = 1.38768e-09, No Iterations 1
ExecutionTime = 0.05 s  ClockTime = 0 s

Courant Number mean: 0.000819909 max: 0.0376361
Time = 0.21

diagonal:  Solving for rho, Initial residual = 0, Final residual = 0, No Iterations 0
DILUPBiCGStab:  Solving for Ux, Initial residual = 0.0739382, Final residual = 7.29652e-09, No Iterations 1
DILUPBiCGStab:  Solving for Uy, Initial residual = 0.0338899, Final residual = 2.64188e-09, No Iterations 1
DILUPBiCGStab:  Solving for h, Initial residual = 0.0471867, Final residual = 3.46027e-09, No Iterations 1
DICPCG:  Solving for p_rgh, Initial residual = 0.0999777, Final residual = 0.000514866, No Iterations 20
diagonal:  Solving for rho, Initial residual = 0, Final residual = 0, No Iterations 0
time step continuity errors : sum local = 8.52209e-08, global = -3.40714e-10, cumulative = 3.66605e-07
DICPCG:  Solving for p_rgh, Initial residual = 0.00267816, Final residual = 6.71084e-09, No Iterations 36
diagonal:  Solving for rho, Initial residual = 0, Final residual = 0, No Iterations 0
time step continuity errors : sum local = 1.97006e-09, global = -1.97006e-09, cumulative = 3.64635e-07
DILUPBiCGStab:  Solving for epsilon, Initial residual = 0.00125938, Final residual = 1.51811e-07, No Iterations 1
DILUPBiCGStab:  Solving for k, Initial residual = 0.024189, Final residual = 1.31775e-09, No Iterations 1
ExecutionTime = 0.06 s  ClockTime = 0 s

Courant Number mean: 0.000858947 max: 0.0384542
Time = 0.22

diagonal:  Solving for rho, Initial residual = 0, Final residual = 0, No Iterations 0
DILUPBiCGStab:  Solving for Ux, Initial residual = 0.0351043, Final residual = 2.76485e-09, No Iterations 1
DILUPBiCGStab:  Solving for Uy, Initial residual = 0.0171196, Final residual = 1.17579e-09, No Iterations 1
DILUPBiCGStab:  Solving for h, Initial residual = 0.0558361, Final residual = 3.62344e-09, No Iterations 1
DICPCG:  Solving for p_rgh, Initial residual = 0.154225, Final residual = 0.000947288, No Iterations 20
diagonal:  Solving for rho, Initial residual = 0, Final residual = 0, No Iterations 0
time step continuity errors : sum local = 1.09724e-07, global = -9.78246e-10, cumulative = 3.63657e-07
DICPCG:  Solving for p_rgh, Initial residual = 0.00609997, Final residual = 7.35931e-09, No Iterations 37
diagonal:  Solving for rho, Initial residual = 0, Final residual = 0, No Iterations 0
time step continuity errors : sum local = 2.07219e-09, global = -2.07219e-09, cumulative = 3.61585e-07
DILUPBiCGStab:  Solving for epsilon, Initial residual = 0.00119592, Final residual = 1.4476e-07, No Iterations 1
DILUPBiCGStab:  Solving for k, Initial residual = 0.0231319, Final residual = 1.25358e-09, No Iterations 1
ExecutionTime = 0.06 s  ClockTime = 0 s

Courant Number mean: 0.000856878 max: 0.0383833
Time = 0.23

diagonal:  Solving for rho, Initial residual = 0, Final residual = 0, No Iterations 0
DILUPBiCGStab:  Solving for Ux, Initial residual = 0.00874235, Final residual = 4.11377e-10, No Iterations 1
DILUPBiCGStab:  Solving for Uy, Initial residual = 0.00495284, Final residual = 7.0494e-07, No Iterations 1
DILUPBiCGStab:  Solving for h, Initial residual = 0.0556577, Final residual = 3.56522e-09, No Iterations 1
DICPCG:  Solving for p_rgh, Initial residual = 0.260792, Final residual = 0.00230623, No Iterations 16
diagonal:  Solving for rho, Initial residual = 0, Final residual = 0, No Iterations 0
time step continuity errors : sum local = 1.44963e-07, global = -5.81862e-09, cumulative = 3.55766e-07
DICPCG:  Solving for p_rgh, Initial residual = 0.0080497, Final residual = 4.71948e-09, No Iterations 37
diagonal:  Solving for rho, Initial residual = 0, Final residual = 0, No Iterations 0
time step continuity errors : sum local = 1.84307e-09, global = -1.84307e-09, cumulative = 3.53923e-07
DILUPBiCGStab:  Solving for epsilon, Initial residual = 0.00113525, Final residual = 1.38317e-07, No Iterations 1
DILUPBiCGStab:  Solving for k, Initial residual = 0.0221731, Final residual = 1.19428e-09, No Iterations 1
ExecutionTime = 0.06 s  ClockTime = 0 s

Courant Number mean: 0.000820353 max: 0.0375604
Time = 0.24

diagonal:  Solving for rho, Initial residual = 0, Final residual = 0, No Iterations 0
DILUPBiCGStab:  Solving for Ux, Initial residual = 0.0367518, Final residual = 4.30587e-09, No Iterations 1
DILUPBiCGStab:  Solving for Uy, Initial residual = 0.0161471, Final residual = 1.14674e-09, No Iterations 1
DILUPBiCGStab:  Solving for h, Initial residual = 0.0484263, Final residual = 3.17893e-09, No Iterations 1
DICPCG:  Solving for p_rgh, Initial residual = 0.296942, Final residual = 0.00277261, No Iterations 16
diagonal:  Solving for rho, Initial residual = 0, Final residual = 0, No Iterations 0
time step continuity errors : sum local = 1.17472e-07, global = 5.85712e-09, cumulative = 3.5978e-07
DICPCG:  Solving for p_rgh, Initial residual = 0.0027708, Final residual = 6.94103e-09, No Iterations 35
diagonal:  Solving for rho, Initial residual = 0, Final residual = 0, No Iterations 0
time step continuity errors : sum local = 1.36321e-09, global = -1.36321e-09, cumulative = 3.58417e-07
DILUPBiCGStab:  Solving for epsilon, Initial residual = 0.00107735, Final residual = 1.32382e-07, No Iterations 1
DILUPBiCGStab:  Solving for k, Initial residual = 0.021298, Final residual = 1.13943e-09, No Iterations 1
ExecutionTime = 0.06 s  ClockTime = 0 s

Courant Number mean: 0.000762803 max: 0.0362178
Time = 0.25

diagonal:  Solving for rho, Initial residual = 0, Final residual = 0, No Iterations 0
DILUPBiCGStab:  Solving for Ux, Initial residual = 0.0584239, Final residual = 6.80151e-09, No Iterations 1
DILUPBiCGStab:  Solving for Uy, Initial residual = 0.0263102, Final residual = 1.9754e-09, No Iterations 1
DILUPBiCGStab:  Solving for h, Initial residual = 0.0368021, Final residual = 2.73996e-09, No Iterations 1
DICPCG:  Solving for p_rgh, Initial residual = 0.100519, Final residual = 0.000795953, No Iterations 20
diagonal:  Solving for rho, Initial residual = 0, Final residual = 0, No Iterations 0
time step continuity errors : sum local = 5.83002e-08, global = 7.65039e-10, cumulative = 3.59182e-07
DICPCG:  Solving for p_rgh, Initial residual = 0.00103677, Final residual = 4.01879e-09, No Iterations 35
diagonal:  Solving for rho, Initial residual = 0, Final residual = 0, No Iterations 0
time step continuity errors : sum local = 7.39157e-10, global = -7.39157e-10, cumulative = 3.58443e-07
DILUPBiCGStab:  Solving for epsilon, Initial residual = 0.00102226, Final residual = 1.26922e-07, No Iterations 1
DILUPBiCGStab:  Solving for k, Initial residual = 0.0204942, Final residual = 1.08916e-09, No Iterations 1
ExecutionTime = 0.06 s  ClockTime = 0 s

Courant Number mean: 0.000701509 max: 0.0346352
Time = 0.26

diagonal:  Solving for rho, Initial residual = 0, Final residual = 0, No Iterations 0
DILUPBiCGStab:  Solving for Ux, Initial residual = 0.0699259, Final residual = 7.92613e-09, No Iterations 1
DILUPBiCGStab:  Solving for Uy, Initial residual = 0.032231, Final residual = 2.36267e-09, No Iterations 1
DILUPBiCGStab:  Solving for h, Initial residual = 0.0236311, Final residual = 2.40734e-09, No Iterations 1
DICPCG:  Solving for p_rgh, Initial residual = 0.0199597, Final residual = 0.000141771, No Iterations 23
diagonal:  Solving for rho, Initial residual = 0, Final residual = 0, No Iterations 0
time step continuity errors : sum local = 1.24017e-08, global = 4.49968e-10, cumulative = 3.58893e-07
DICPCG:  Solving for p_rgh, Initial residual = 0.000302189, Final residual = 6.61653e-09, No Iterations 33
diagonal:  Solving for rho, Initial residual = 0, Final residual = 0, No Iterations 0
time step continuity errors : sum local = 8.65589e-11, global = -8.65589e-11, cumulative = 3.58806e-07
DILUPBiCGStab:  Solving for epsilon, Initial residual = 0.000971223, Final residual = 1.21801e-07, No Iterations 1
DILUPBiCGStab:  Solving for k, Initial residual = 0.0197519, Final residual = 1.04351e-09, No Iterations 1
ExecutionTime = 0.07 s  ClockTime = 0 s

Courant Number mean: 0.000652629 max: 0.0330903
Time = 0.27

diagonal:  Solving for rho, Initial residual = 0, Final residual = 0, No Iterations 0
DILUPBiCGStab:  Solving for Ux, Initial residual = 0.0702711, Final residual = 7.79886e-09, No Iterations 1
DILUPBiCGStab:  Solving for Uy, Initial residual = 0.0334681, Final residual = 2.35392e-09, No Iterations 1
DILUPBiCGStab:  Solving for h, Initial residual = 0.011577, Final residual = 7.77956e-10, No Iterations 1
DICPCG:  Solving for p_rgh, Initial residual = 0.0554785, Final residual = 0.000528107, No Iterations 20
diagonal:  Solving for rho, Initial residual = 0, Final residual = 0, No Iterations 0
time step continuity errors : sum local = 4.52963e-08, global = -1.5587e-10, cumulative = 3.58651e-07
DICPCG:  Solving for p_rgh, Initial residual = 0.00125996, Final residual = 6.87043e-09, No Iterations 35
diagonal:  Solving for rho, Initial residual = 0, Final residual = 0, No Iterations 0
time step continuity errors : sum local = 4.9171e-10, global = 4.91537e-10, cumulative = 3.59142e-07
DILUPBiCGStab:  Solving for epsilon, Initial residual = 0.000924428, Final residual = 1.17009e-07, No Iterations 1
DILUPBiCGStab:  Solving for k, Initial residual = 0.0190629, Final residual = 1.00352e-09, No Iterations 1
ExecutionTime = 0.07 s  ClockTime = 0 s

Courant Number mean: 0.000637743 max: 0.031818
Time = 0.28

diagonal:  Solving for rho, Initial residual = 0, Final residual = 0, No Iterations 0
DILUPBiCGStab:  Solving for Ux, Initial residual = 0.0600027, Final residual = 6.56492e-09, No Iterations 1
DILUPBiCGStab:  Solving for Uy, Initial residual = 0.0290905, Final residual = 1.94455e-09, No Iterations 1
DILUPBiCGStab:  Solving for h, Initial residual = 0.0175146, Final residual = 1.93563e-09, No Iterations 1
DICPCG:  Solving for p_rgh, Initial residual = 0.104335, Final residual = 0.00100145, No Iterations 18
diagonal:  Solving for rho, Initial residual = 0, Final residual = 0, No Iterations 0
time step continuity errors : sum local = 7.32935e-08, global = 1.31517e-09, cumulative = 3.60457e-07
DICPCG:  Solving for p_rgh, Initial residual = 0.00330987, Final residual = 5.64241e-09, No Iterations 36
diagonal:  Solving for rho, Initial residual = 0, Final residual = 0, No Iterations 0
time step continuity errors : sum local = 9.16544e-10, global = 9.16544e-10, cumulative = 3.61374e-07
DILUPBiCGStab:  Solving for epsilon, Initial residual = 0.000879607, Final residual = 1.12311e-07, No Iterations 1
DILUPBiCGStab:  Solving for k, Initial residual = 0.0184216, Final residual = 9.68112e-10, No Iterations 1
ExecutionTime = 0.07 s  ClockTime = 0 s

Courant Number mean: 0.000650564 max: 0.0317867
Time = 0.29

diagonal:  Solving for rho, Initial residual = 0, Final residual = 0, No Iterations 0
DILUPBiCGStab:  Solving for Ux, Initial residual = 0.0414626, Final residual = 4.4576e-09, No Iterations 1
DILUPBiCGStab:  Solving for Uy, Initial residual = 0.0201692, Final residual = 1.26099e-09, No Iterations 1
DILUPBiCGStab:  Solving for h, Initial residual = 0.0232477, Final residual = 2.24888e-09, No Iterations 1
DICPCG:  Solving for p_rgh, Initial residual = 0.191617, Final residual = 0.00106931, No Iterations 20
diagonal:  Solving for rho, Initial residual = 0, Final residual = 0, No Iterations 0
time step continuity errors : sum local = 5.42128e-08, global = 7.8322e-10, cumulative = 3.62157e-07
DICPCG:  Solving for p_rgh, Initial residual = 0.00730942, Final residual = 8.98292e-09, No Iterations 37
diagonal:  Solving for rho, Initial residual = 0, Final residual = 0, No Iterations 0
time step continuity errors : sum local = 1.14394e-09, global = 1.14394e-09, cumulative = 3.63301e-07
DILUPBiCGStab:  Solving for epsilon, Initial residual = 0.000836122, Final residual = 1.07528e-07, No Iterations 1
DILUPBiCGStab:  Solving for k, Initial residual = 0.0178249, Final residual = 9.35182e-10, No Iterations 1
ExecutionTime = 0.07 s  ClockTime = 0 s

Courant Number mean: 0.000658657 max: 0.0318016
Time = 0.3

diagonal:  Solving for rho, Initial residual = 0, Final residual = 0, No Iterations 0
DILUPBiCGStab:  Solving for Ux, Initial residual = 0.0184388, Final residual = 1.65327e-09, No Iterations 1
DILUPBiCGStab:  Solving for Uy, Initial residual = 0.00907768, Final residual = 4.90769e-10, No Iterations 1
DILUPBiCGStab:  Solving for h, Initial residual = 0.0257024, Final residual = 2.18902e-09, No Iterations 1
DICPCG:  Solving for p_rgh, Initial residual = 0.368335, Final residual = 0.00241482, No Iterations 20
diagonal:  Solving for rho, Initial residual = 0, Final residual = 0, No Iterations 0
time step continuity errors : sum local = 6.65931e-08, global = 1.02992e-09, cumulative = 3.64331e-07
DICPCG:  Solving for p_rgh, Initial residual = 0.00317469, Final residual = 8.63803e-09, No Iterations 36
diagonal:  Solving for rho, Initial residual = 0, Final residual = 0, No Iterations 0
time step continuity errors : sum local = 1.16524e-09, global = 1.16524e-09, cumulative = 3.65496e-07
DILUPBiCGStab:  Solving for epsilon, Initial residual = 0.000793761, Final residual = 1.02665e-07, No Iterations 1
DILUPBiCGStab:  Solving for k, Initial residual = 0.0172687, Final residual = 9.03449e-10, No Iterations 1
ExecutionTime = 0.08 s  ClockTime = 0 s

Courant Number mean: 0.000657699 max: 0.0318163
Time = 0.31

diagonal:  Solving for rho, Initial residual = 0, Final residual = 0, No Iterations 0
DILUPBiCGStab:  Solving for Ux, Initial residual = 0.0109448, Final residual = 6.31341e-10, No Iterations 1
DILUPBiCGStab:  Solving for Uy, Initial residual = 0.00520762, Final residual = 3.70315e-10, No Iterations 1
DILUPBiCGStab:  Solving for h, Initial residual = 0.0251191, Final residual = 2.06295e-09, No Iterations 1
DICPCG:  Solving for p_rgh, Initial residual = 0.159806, Final residual = 0.00159491, No Iterations 15
diagonal:  Solving for rho, Initial residual = 0, Final residual = 0, No Iterations 0
time step continuity errors : sum local = 9.00077e-08, global = 2.83638e-09, cumulative = 3.68333e-07
DICPCG:  Solving for p_rgh, Initial residual = 0.00187303, Final residual = 5.6221e-09, No Iterations 35
diagonal:  Solving for rho, Initial residual = 0, Final residual = 0, No Iterations 0
time step continuity errors : sum local = 1.00467e-09, global = 1.00467e-09, cumulative = 3.69337e-07
DILUPBiCGStab:  Solving for epsilon, Initial residual = 0.000752399, Final residual = 9.77946e-08, No Iterations 1
DILUPBiCGStab:  Solving for k, Initial residual = 0.0167487, Final residual = 8.72991e-10, No Iterations 1
ExecutionTime = 0.08 s  ClockTime = 0 s

Courant Number mean: 0.000650771 max: 0.0318308
Time = 0.32

diagonal:  Solving for rho, Initial residual = 0, Final residual = 0, No Iterations 0
DILUPBiCGStab:  Solving for Ux, Initial residual = 0.0295421, Final residual = 2.46775e-09, No Iterations 1
DILUPBiCGStab:  Solving for Uy, Initial residual = 0.0120522, Final residual = 1.14614e-09, No Iterations 1
DILUPBiCGStab:  Solving for h, Initial residual = 0.0221236, Final residual = 1.89181e-09, No Iterations 1
DICPCG:  Solving for p_rgh, Initial residual = 0.0820733, Final residual = 0.00072317, No Iterations 18
diagonal:  Solving for rho, Initial residual = 0, Final residual = 0, No Iterations 0
time step continuity errors : sum local = 5.85298e-08, global = -1.47927e-09, cumulative = 3.67858e-07
DICPCG:  Solving for p_rgh, Initial residual = 0.000972673, Final residual = 4.67485e-09, No Iterations 35
diagonal:  Solving for rho, Initial residual = 0, Final residual = 0, No Iterations 0
time step continuity errors : sum local = 7.10882e-10, global = 7.10882e-10, cumulative = 3.68569e-07
DILUPBiCGStab:  Solving for epsilon, Initial residual = 0.000712, Final residual = 9.30921e-08, No Iterations 1
DILUPBiCGStab:  Solving for k, Initial residual = 0.0162602, Final residual = 8.44126e-10, No Iterations 1
ExecutionTime = 0.08 s  ClockTime = 0 s

Courant Number mean: 0.000647887 max: 0.0322321
Time = 0.33

diagonal:  Solving for rho, Initial residual = 0, Final residual = 0, No Iterations 0
DILUPBiCGStab:  Solving for Ux, Initial residual = 0.0410764, Final residual = 3.61219e-09, No Iterations 1
DILUPBiCGStab:  Solving for Uy, Initial residual = 0.0178538, Final residual = 1.52923e-09, No Iterations 1
DILUPBiCGStab:  Solving for h, Initial residual = 0.0175674, Final residual = 1.66979e-09, No Iterations 1
DICPCG:  Solving for p_rgh, Initial residual = 0.0369783, Final residual = 0.000310189, No Iterations 20
diagonal:  Solving for rho, Initial residual = 0, Final residual = 0, No Iterations 0
time step continuity errors : sum local = 2.99715e-08, global = -6.64833e-12, cumulative = 3.68562e-07
DICPCG:  Solving for p_rgh, Initial residual = 0.00043128, Final residual = 9.08001e-09, No Iterations 33
diagonal:  Solving for rho, Initial residual = 0, Final residual = 0, No Iterations 0
time step continuity errors : sum local = 3.46916e-10, global = 3.46916e-10, cumulative = 3.68909e-07
DILUPBiCGStab:  Solving for epsilon, Initial residual = 0.000672895, Final residual = 8.87076e-08, No Iterations 1
DILUPBiCGStab:  Solving for k, Initial residual = 0.015798, Final residual = 8.17941e-10, No Iterations 1
ExecutionTime = 0.08 s  ClockTime = 0 s

Courant Number mean: 0.000668515 max: 0.0331807
Time = 0.34

diagonal:  Solving for rho, Initial residual = 0, Final residual = 0, No Iterations 0
DILUPBiCGStab:  Solving for Ux, Initial residual = 0.0444418, Final residual = 3.88171e-09, No Iterations 1
DILUPBiCGStab:  Solving for Uy, Initial residual = 0.0199227, Final residual = 1.57221e-09, No Iterations 1
DILUPBiCGStab:  Solving for h, Initial residual = 0.0123754, Final residual = 1.15504e-09, No Iterations 1
DICPCG:  Solving for p_rgh, Initial residual = 0.00931917, Final residual = 6.39852e-05, No Iterations 23
diagonal:  Solving for rho, Initial residual = 0, Final residual = 0, No Iterations 0
time step continuity errors : sum local = 6.69585e-09, global = 1.45658e-10, cumulative = 3.69055e-07
DICPCG:  Solving for p_rgh, Initial residual = 0.00019189, Final residual = 5.01517e-09, No Iterations 33
diagonal:  Solving for rho, Initial residual = 0, Final residual = 0, No Iterations 0
time step continuity errors : sum local = 2.63712e-11, global = -2.17774e-11, cumulative = 3.69033e-07
DILUPBiCGStab:  Solving for epsilon, Initial residual = 0.000635483, Final residual = 8.46601e-08, No Iterations 1
DILUPBiCGStab:  Solving for k, Initial residual = 0.0153631, Final residual = 7.94745e-10, No Iterations 1
ExecutionTime = 0.09 s  ClockTime = 0 s

Courant Number mean: 0.000697986 max: 0.0340791
Time = 0.35

diagonal:  Solving for rho, Initial residual = 0, Final residual = 0, No Iterations 0
DILUPBiCGStab:  Solving for Ux, Initial residual = 0.040703, Final residual = 3.4384e-09, No Iterations 1
DILUPBiCGStab:  Solving for Uy, Initial residual = 0.0186887, Final residual = 1.39544e-09, No Iterations 1
DILUPBiCGStab:  Solving for h, Initial residual = 0.00811614, Final residual = 8.40599e-07, No Iterations 1
DICPCG:  Solving for p_rgh, Initial residual = 0.0315345, Final residual = 0.000270266, No Iterations 18
diagonal:  Solving for rho, Initial residual = 0, Final residual = 0, No Iterations 0
time step continuity errors : sum local = 2.71472e-08, global = 3.52909e-10, cumulative = 3.69386e-07
DICPCG:  Solving for p_rgh, Initial residual = 0.000684538, Final residual = 6.78627e-09, No Iterations 34
diagonal:  Solving for rho, Initial residual = 0, Final residual = 0, No Iterations 0
time step continuity errors : sum local = 3.38078e-10, global = -3.37988e-10, cumulative = 3.69048e-07
DILUPBiCGStab:  Solving for epsilon, Initial residual = 0.000599129, Final residual = 8.09204e-08, No Iterations 1
DILUPBiCGStab:  Solving for k, Initial residual = 0.0149537, Final residual = 7.73147e-10, No Iterations 1
ExecutionTime = 0.09 s  ClockTime = 0 s

Courant Number mean: 0.000724965 max: 0.034799
Time = 0.36

diagonal:  Solving for rho, Initial residual = 0, Final residual = 0, No Iterations 0
DILUPBiCGStab:  Solving for Ux, Initial residual = 0.031973, Final residual = 2.51214e-09, No Iterations 1
DILUPBiCGStab:  Solving for Uy, Initial residual = 0.0149959, Final residual = 1.06127e-09, No Iterations 1
DILUPBiCGStab:  Solving for h, Initial residual = 0.0118151, Final residual = 1.05203e-09, No Iterations 1
DICPCG:  Solving for p_rgh, Initial residual = 0.0513632, Final residual = 0.00027909, No Iterations 20
diagonal:  Solving for rho, Initial residual = 0, Final residual = 0, No Iterations 0
time step continuity errors : sum local = 2.57228e-08, global = 3.8427e-10, cumulative = 3.69432e-07
DICPCG:  Solving for p_rgh, Initial residual = 0.00100528, Final residual = 5.20699e-09, No Iterations 35
diagonal:  Solving for rho, Initial residual = 0, Final residual = 0, No Iterations 0
time step continuity errors : sum local = 5.601e-10, global = -5.601e-10, cumulative = 3.68872e-07
DILUPBiCGStab:  Solving for epsilon, Initial residual = 0.000563807, Final residual = 7.74502e-08, No Iterations 1
DILUPBiCGStab:  Solving for k, Initial residual = 0.0145651, Final residual = 7.52404e-10, No Iterations 1
ExecutionTime = 0.09 s  ClockTime = 0 s

Courant Number mean: 0.000743653 max: 0.0352568
Time = 0.37

diagonal:  Solving for rho, Initial residual = 0, Final residual = 0, No Iterations 0
DILUPBiCGStab:  Solving for Ux, Initial residual = 0.020575, Final residual = 1.35506e-09, No Iterations 1
DILUPBiCGStab:  Solving for Uy, Initial residual = 0.0098776, Final residual = 6.52255e-10, No Iterations 1
DILUPBiCGStab:  Solving for h, Initial residual = 0.0142293, Final residual = 1.23472e-09, No Iterations 1
DICPCG:  Solving for p_rgh, Initial residual = 0.0721537, Final residual = 0.00042288, No Iterations 20
diagonal:  Solving for rho, Initial residual = 0, Final residual = 0, No Iterations 0
time step continuity errors : sum local = 3.30966e-08, global = -5.10169e-11, cumulative = 3.68821e-07
DICPCG:  Solving for p_rgh, Initial residual = 0.00156394, Final residual = 8.52701e-09, No Iterations 35
diagonal:  Solving for rho, Initial residual = 0, Final residual = 0, No Iterations 0
time step continuity errors : sum local = 6.6657e-10, global = -6.6657e-10, cumulative = 3.68155e-07
DILUPBiCGStab:  Solving for epsilon, Initial residual = 0.000530378, Final residual = 7.4235e-08, No Iterations 1
DILUPBiCGStab:  Solving for k, Initial residual = 0.014198, Final residual = 7.32846e-10, No Iterations 1
ExecutionTime = 0.09 s  ClockTime = 0 s

Courant Number mean: 0.000751402 max: 0.0354204
Time = 0.38

diagonal:  Solving for rho, Initial residual = 0, Final residual = 0, No Iterations 0
DILUPBiCGStab:  Solving for Ux, Initial residual = 0.00882141, Final residual = 4.20619e-10, No Iterations 1
DILUPBiCGStab:  Solving for Uy, Initial residual = 0.00457879, Final residual = 2.84361e-10, No Iterations 1
DILUPBiCGStab:  Solving for h, Initial residual = 0.0151367, Final residual = 1.239e-09, No Iterations 1
DICPCG:  Solving for p_rgh, Initial residual = 0.09303, Final residual = 0.000585118, No Iterations 20
diagonal:  Solving for rho, Initial residual = 0, Final residual = 0, No Iterations 0
time step continuity errors : sum local = 3.59274e-08, global = -1.92344e-10, cumulative = 3.67962e-07
DICPCG:  Solving for p_rgh, Initial residual = 0.00210982, Final residual = 5.7093e-09, No Iterations 36
diagonal:  Solving for rho, Initial residual = 0, Final residual = 0, No Iterations 0
time step continuity errors : sum local = 6.56636e-10, global = -6.56636e-10, cumulative = 3.67306e-07
DILUPBiCGStab:  Solving for epsilon, Initial residual = 0.000498324, Final residual = 7.12271e-08, No Iterations 1
DILUPBiCGStab:  Solving for k, Initial residual = 0.0138514, Final residual = 7.14232e-10, No Iterations 1
ExecutionTime = 0.1 s  ClockTime = 0 s

Courant Number mean: 0.000748563 max: 0.0353073
Time = 0.39

diagonal:  Solving for rho, Initial residual = 0, Final residual = 0, No Iterations 0
DILUPBiCGStab:  Solving for Ux, Initial residual = 0.00802044, Final residual = 4.20449e-10, No Iterations 1
DILUPBiCGStab:  Solving for Uy, Initial residual = 0.00398672, Final residual = 7.14164e-07, No Iterations 1
DILUPBiCGStab:  Solving for h, Initial residual = 0.0146289, Final residual = 1.18812e-09, No Iterations 1
DICPCG:  Solving for p_rgh, Initial residual = 0.109355, Final residual = 0.000906479, No Iterations 15
diagonal:  Solving for rho, Initial residual = 0, Final residual = 0, No Iterations 0
time step continuity errors : sum local = 4.09066e-08, global = 1.84042e-12, cumulative = 3.67307e-07
DICPCG:  Solving for p_rgh, Initial residual = 0.00247122, Final residual = 8.39376e-09, No Iterations 35
diagonal:  Solving for rho, Initial residual = 0, Final residual = 0, No Iterations 0
time step continuity errors : sum local = 5.4753e-10, global = -5.4753e-10, cumulative = 3.6676e-07
DILUPBiCGStab:  Solving for epsilon, Initial residual = 0.000467573, Final residual = 6.83491e-08, No Iterations 1
DILUPBiCGStab:  Solving for k, Initial residual = 0.0135233, Final residual = 6.96498e-10, No Iterations 1
ExecutionTime = 0.1 s  ClockTime = 0 s

Courant Number mean: 0.000737612 max: 0.0349748
Time = 0.4

diagonal:  Solving for rho, Initial residual = 0, Final residual = 0, No Iterations 0
DILUPBiCGStab:  Solving for Ux, Initial residual = 0.0159843, Final residual = 1.3029e-09, No Iterations 1
DILUPBiCGStab:  Solving for Uy, Initial residual = 0.00722284, Final residual = 4.1062e-10, No Iterations 1
DILUPBiCGStab:  Solving for h, Initial residual = 0.0130124, Final residual = 1.09052e-09, No Iterations 1
DICPCG:  Solving for p_rgh, Initial residual = 0.110963, Final residual = 0.000780427, No Iterations 20
diagonal:  Solving for rho, Initial residual = 0, Final residual = 0, No Iterations 0
time step continuity errors : sum local = 2.45181e-08, global = 5.2915e-10, cumulative = 3.67289e-07
DICPCG:  Solving for p_rgh, Initial residual = 0.00203157, Final residual = 9.08436e-09, No Iterations 35
diagonal:  Solving for rho, Initial residual = 0, Final residual = 0, No Iterations 0
time step continuity errors : sum local = 3.69068e-10, global = -3.69068e-10, cumulative = 3.6692e-07
DILUPBiCGStab:  Solving for epsilon, Initial residual = 0.000442442, Final residual = 6.55802e-08, No Iterations 1
DILUPBiCGStab:  Solving for k, Initial residual = 0.0132108, Final residual = 6.7942e-10, No Iterations 1
ExecutionTime = 0.1 s  ClockTime = 0 s

Courant Number mean: 0.000722257 max: 0.0345063
Time = 0.41

diagonal:  Solving for rho, Initial residual = 0, Final residual = 0, No Iterations 0
DILUPBiCGStab:  Solving for Ux, Initial residual = 0.0211761, Final residual = 1.92689e-09, No Iterations 1
DILUPBiCGStab:  Solving for Uy, Initial residual = 0.0095785, Final residual = 5.7227e-10, No Iterations 1
DILUPBiCGStab:  Solving for h, Initial residual = 0.0107111, Final residual = 9.03904e-10, No Iterations 1
DICPCG:  Solving for p_rgh, Initial residual = 0.0749746, Final residual = 0.000572378, No Iterations 21
diagonal:  Solving for rho, Initial residual = 0, Final residual = 0, No Iterations 0
time step continuity errors : sum local = 1.30894e-08, global = 4.14547e-10, cumulative = 3.67334e-07
DICPCG:  Solving for p_rgh, Initial residual = 0.000773071, Final residual = 6.12372e-09, No Iterations 33
diagonal:  Solving for rho, Initial residual = 0, Final residual = 0, No Iterations 0
time step continuity errors : sum local = 1.58145e-10, global = -1.58145e-10, cumulative = 3.67176e-07
DILUPBiCGStab:  Solving for epsilon, Initial residual = 0.000420263, Final residual = 6.29152e-08, No Iterations 1
DILUPBiCGStab:  Solving for k, Initial residual = 0.0129134, Final residual = 6.63159e-10, No Iterations 1
ExecutionTime = 0.1 s  ClockTime = 0 s

Courant Number mean: 0.000707047 max: 0.0339944
Time = 0.42

diagonal:  Solving for rho, Initial residual = 0, Final residual = 0, No Iterations 0
DILUPBiCGStab:  Solving for Ux, Initial residual = 0.0228515, Final residual = 2.09663e-09, No Iterations 1
DILUPBiCGStab:  Solving for Uy, Initial residual = 0.0104113, Final residual = 6.19383e-10, No Iterations 1
DILUPBiCGStab:  Solving for h, Initial residual = 0.00817615, Final residual = 5.6118e-10, No Iterations 1
DICPCG:  Solving for p_rgh, Initial residual = 0.0347924, Final residual = 0.000292959, No Iterations 22
diagonal:  Solving for rho, Initial residual = 0, Final residual = 0, No Iterations 0
time step continuity errors : sum local = 6.75375e-09, global = 2.92274e-10, cumulative = 3.67469e-07
DICPCG:  Solving for p_rgh, Initial residual = 0.000750473, Final residual = 6.94519e-09, No Iterations 34
diagonal:  Solving for rho, Initial residual = 0, Final residual = 0, No Iterations 0
time step continuity errors : sum local = 4.89388e-11, global = 4.86312e-11, cumulative = 3.67517e-07
DILUPBiCGStab:  Solving for epsilon, Initial residual = 0.000400884, Final residual = 6.03271e-08, No Iterations 1
DILUPBiCGStab:  Solving for k, Initial residual = 0.0126298, Final residual = 6.47676e-10, No Iterations 1
ExecutionTime = 0.1 s  ClockTime = 0 s

Courant Number mean: 0.000694483 max: 0.0335261
Time = 0.43

diagonal:  Solving for rho, Initial residual = 0, Final residual = 0, No Iterations 0
DILUPBiCGStab:  Solving for Ux, Initial residual = 0.0211698, Final residual = 1.89019e-09, No Iterations 1
DILUPBiCGStab:  Solving for Uy, Initial residual = 0.00966274, Final residual = 5.62787e-10, No Iterations 1
DILUPBiCGStab:  Solving for h, Initial residual = 0.00687303, Final residual = 7.86671e-07, No Iterations 1
DICPCG:  Solving for p_rgh, Initial residual = 0.0905232, Final residual = 0.000487632, No Iterations 18
diagonal:  Solving for rho, Initial residual = 0, Final residual = 0, No Iterations 0
time step continuity errors : sum local = 1.07379e-08, global = 2.72262e-10, cumulative = 3.6779e-07
DICPCG:  Solving for p_rgh, Initial residual = 0.00142294, Final residual = 7.15887e-09, No Iterations 35
diagonal:  Solving for rho, Initial residual = 0, Final residual = 0, No Iterations 0
time step continuity errors : sum local = 2.2019e-10, global = 2.2019e-10, cumulative = 3.6801e-07
DILUPBiCGStab:  Solving for epsilon, Initial residual = 0.000395914, Final residual = 5.78048e-08, No Iterations 1
DILUPBiCGStab:  Solving for k, Initial residual = 0.012359, Final residual = 6.32953e-10, No Iterations 1
ExecutionTime = 0.11 s  ClockTime = 0 s

Courant Number mean: 0.000686569 max: 0.0331699
Time = 0.44

diagonal:  Solving for rho, Initial residual = 0, Final residual = 0, No Iterations 0
DILUPBiCGStab:  Solving for Ux, Initial residual = 0.0167712, Final residual = 1.38431e-09, No Iterations 1
DILUPBiCGStab:  Solving for Uy, Initial residual = 0.00768938, Final residual = 4.29976e-10, No Iterations 1
DILUPBiCGStab:  Solving for h, Initial residual = 0.00836416, Final residual = 5.85693e-10, No Iterations 1
DICPCG:  Solving for p_rgh, Initial residual = 0.112591, Final residual = 0.000592219, No Iterations 20
diagonal:  Solving for rho, Initial residual = 0, Final residual = 0, No Iterations 0
time step continuity errors : sum local = 1.4828e-08, global = 3.53742e-10, cumulative = 3.68363e-07
DICPCG:  Solving for p_rgh, Initial residual = 0.00138452, Final residual = 6.60043e-09, No Iterations 35
diagonal:  Solving for rho, Initial residual = 0, Final residual = 0, No Iterations 0
time step continuity errors : sum local = 3.34881e-10, global = 3.34881e-10, cumulative = 3.68698e-07
DILUPBiCGStab:  Solving for epsilon, Initial residual = 0.000399499, Final residual = 5.53166e-08, No Iterations 1
DILUPBiCGStab:  Solving for k, Initial residual = 0.0120997, Final residual = 6.18894e-10, No Iterations 1
ExecutionTime = 0.11 s  ClockTime = 0 s

Courant Number mean: 0.000683543 max: 0.0329679
Time = 0.45

diagonal:  Solving for rho, Initial residual = 0, Final residual = 0, No Iterations 0
DILUPBiCGStab:  Solving for Ux, Initial residual = 0.0106717, Final residual = 7.03369e-10, No Iterations 1
DILUPBiCGStab:  Solving for Uy, Initial residual = 0.00502443, Final residual = 2.55767e-10, No Iterations 1
DILUPBiCGStab:  Solving for h, Initial residual = 0.00926484, Final residual = 7.26019e-10, No Iterations 1
DICPCG:  Solving for p_rgh, Initial residual = 0.0974318, Final residual = 0.000621143, No Iterations 20
diagonal:  Solving for rho, Initial residual = 0, Final residual = 0, No Iterations 0
time step continuity errors : sum local = 2.11417e-08, global = 5.05026e-10, cumulative = 3.69203e-07
DICPCG:  Solving for p_rgh, Initial residual = 0.00124316, Final residual = 7.03866e-09, No Iterations 35
diagonal:  Solving for rho, Initial residual = 0, Final residual = 0, No Iterations 0
time step continuity errors : sum local = 3.82738e-10, global = 3.82738e-10, cumulative = 3.69586e-07
DILUPBiCGStab:  Solving for epsilon, Initial residual = 0.000404399, Final residual = 5.35342e-08, No Iterations 1
DILUPBiCGStab:  Solving for k, Initial residual = 0.0118514, Final residual = 6.05501e-10, No Iterations 1
ExecutionTime = 0.11 s  ClockTime = 0 s

Courant Number mean: 0.000684461 max: 0.0329331
Time = 0.46

diagonal:  Solving for rho, Initial residual = 0, Final residual = 0, No Iterations 0
DILUPBiCGStab:  Solving for Ux, Initial residual = 0.00467535, Final residual = 9.04519e-07, No Iterations 1
DILUPBiCGStab:  Solving for Uy, Initial residual = 0.00277969, Final residual = 4.53366e-07, No Iterations 1
DILUPBiCGStab:  Solving for h, Initial residual = 0.00950101, Final residual = 7.5382e-10, No Iterations 1
DICPCG:  Solving for p_rgh, Initial residual = 0.0743073, Final residual = 0.000510501, No Iterations 20
diagonal:  Solving for rho, Initial residual = 0, Final residual = 0, No Iterations 0
time step continuity errors : sum local = 2.22498e-08, global = 5.44746e-10, cumulative = 3.70131e-07
DICPCG:  Solving for p_rgh, Initial residual = 0.000950023, Final residual = 5.42316e-09, No Iterations 35
diagonal:  Solving for rho, Initial residual = 0, Final residual = 0, No Iterations 0
time step continuity errors : sum local = 3.6535e-10, global = 3.6535e-10, cumulative = 3.70496e-07
DILUPBiCGStab:  Solving for epsilon, Initial residual = 0.000410662, Final residual = 5.22235e-08, No Iterations 1
DILUPBiCGStab:  Solving for k, Initial residual = 0.0116134, Final residual = 5.9265e-10, No Iterations 1
ExecutionTime = 0.11 s  ClockTime = 0 s

Courant Number mean: 0.000688602 max: 0.0330508
Time = 0.47

diagonal:  Solving for rho, Initial residual = 0, Final residual = 0, No Iterations 0
DILUPBiCGStab:  Solving for Ux, Initial residual = 0.00721718, Final residual = 3.43426e-10, No Iterations 1
DILUPBiCGStab:  Solving for Uy, Initial residual = 0.00336549, Final residual = 7.84627e-07, No Iterations 1
DILUPBiCGStab:  Solving for h, Initial residual = 0.00912878, Final residual = 7.08571e-10, No Iterations 1
DICPCG:  Solving for p_rgh, Initial residual = 0.0509609, Final residual = 0.000498167, No Iterations 14
diagonal:  Solving for rho, Initial residual = 0, Final residual = 0, No Iterations 0
time step continuity errors : sum local = 2.63878e-08, global = 4.43353e-11, cumulative = 3.70541e-07
DICPCG:  Solving for p_rgh, Initial residual = 0.000724684, Final residual = 6.64421e-09, No Iterations 34
diagonal:  Solving for rho, Initial residual = 0, Final residual = 0, No Iterations 0
time step continuity errors : sum local = 2.94145e-10, global = 2.94145e-10, cumulative = 3.70835e-07
DILUPBiCGStab:  Solving for epsilon, Initial residual = 0.000419098, Final residual = 5.1184e-08, No Iterations 1
DILUPBiCGStab:  Solving for k, Initial residual = 0.0113855, Final residual = 5.80377e-10, No Iterations 1
ExecutionTime = 0.12 s  ClockTime = 0 s

Courant Number mean: 0.000695841 max: 0.0332851
Time = 0.48

diagonal:  Solving for rho, Initial residual = 0, Final residual = 0, No Iterations 0
DILUPBiCGStab:  Solving for Ux, Initial residual = 0.0115773, Final residual = 6.43869e-10, No Iterations 1
DILUPBiCGStab:  Solving for Uy, Initial residual = 0.00503777, Final residual = 4.00482e-10, No Iterations 1
DILUPBiCGStab:  Solving for h, Initial residual = 0.00828885, Final residual = 6.03528e-10, No Iterations 1
DICPCG:  Solving for p_rgh, Initial residual = 0.0303012, Final residual = 0.000217453, No Iterations 20
diagonal:  Solving for rho, Initial residual = 0, Final residual = 0, No Iterations 0
time step continuity errors : sum local = 1.29915e-08, global = 1.17163e-10, cumulative = 3.70952e-07
DICPCG:  Solving for p_rgh, Initial residual = 0.000351079, Final residual = 8.6535e-09, No Iterations 33
diagonal:  Solving for rho, Initial residual = 0, Final residual = 0, No Iterations 0
time step continuity errors : sum local = 1.87023e-10, global = 1.87023e-10, cumulative = 3.71139e-07
DILUPBiCGStab:  Solving for epsilon, Initial residual = 0.000429296, Final residual = 5.03135e-08, No Iterations 1
DILUPBiCGStab:  Solving for k, Initial residual = 0.0111669, Final residual = 5.68598e-10, No Iterations 1
ExecutionTime = 0.12 s  ClockTime = 0 s

Courant Number mean: 0.000705581 max: 0.0335867
Time = 0.49

diagonal:  Solving for rho, Initial residual = 0, Final residual = 0, No Iterations 0
DILUPBiCGStab:  Solving for Ux, Initial residual = 0.0139753, Final residual = 8.34596e-10, No Iterations 1
DILUPBiCGStab:  Solving for Uy, Initial residual = 0.00622449, Final residual = 4.70349e-10, No Iterations 1
DILUPBiCGStab:  Solving for h, Initial residual = 0.00717674, Final residual = 4.46684e-10, No Iterations 1
DICPCG:  Solving for p_rgh, Initial residual = 0.012316, Final residual = 9.84219e-05, No Iterations 21
diagonal:  Solving for rho, Initial residual = 0, Final residual = 0, No Iterations 0
time step continuity errors : sum local = 6.34908e-09, global = 1.88058e-10, cumulative = 3.71327e-07
DICPCG:  Solving for p_rgh, Initial residual = 0.000132056, Final residual = 6.06658e-09, No Iterations 31
diagonal:  Solving for rho, Initial residual = 0, Final residual = 0, No Iterations 0
time step continuity errors : sum local = 6.54339e-11, global = 6.54339e-11, cumulative = 3.71392e-07
DILUPBiCGStab:  Solving for epsilon, Initial residual = 0.000440165, Final residual = 4.95037e-08, No Iterations 1
DILUPBiCGStab:  Solving for k, Initial residual = 0.0109574, Final residual = 5.57318e-10, No Iterations 1
ExecutionTime = 0.12 s  ClockTime = 0 s

Courant Number mean: 0.000716384 max: 0.0339027
Time = 0.5

diagonal:  Solving for rho, Initial residual = 0, Final residual = 0, No Iterations 0
DILUPBiCGStab:  Solving for Ux, Initial residual = 0.0143052, Final residual = 8.54078e-10, No Iterations 1
DILUPBiCGStab:  Solving for Uy, Initial residual = 0.00652566, Final residual = 4.66486e-10, No Iterations 1
DILUPBiCGStab:  Solving for h, Initial residual = 0.00599663, Final residual = 7.15958e-07, No Iterations 1
DICPCG:  Solving for p_rgh, Initial residual = 0.0101214, Final residual = 6.39724e-05, No Iterations 22
diagonal:  Solving for rho, Initial residual = 0, Final residual = 0, No Iterations 0
time step continuity errors : sum local = 4.25166e-09, global = 2.55033e-10, cumulative = 3.71647e-07
DICPCG:  Solving for p_rgh, Initial residual = 0.000171984, Final residual = 9.57697e-09, No Iterations 32
diagonal:  Solving for rho, Initial residual = 0, Final residual = 0, No Iterations 0
time step continuity errors : sum local = 5.02258e-11, global = -5.0092e-11, cumulative = 3.71597e-07
DILUPBiCGStab:  Solving for epsilon, Initial residual = 0.000451684, Final residual = 4.87924e-08, No Iterations 1
DILUPBiCGStab:  Solving for k, Initial residual = 0.0107564, Final residual = 5.46539e-10, No Iterations 1
ExecutionTime = 0.12 s  ClockTime = 0 s

Courant Number mean: 0.000726547 max: 0.0341847
Time = 0.51

diagonal:  Solving for rho, Initial residual = 0, Final residual = 0, No Iterations 0
DILUPBiCGStab:  Solving for Ux, Initial residual = 0.0128306, Final residual = 7.28067e-10, No Iterations 1
DILUPBiCGStab:  Solving for Uy, Initial residual = 0.00594542, Final residual = 4.04944e-10, No Iterations 1
DILUPBiCGStab:  Solving for h, Initial residual = 0.00578541, Final residual = 6.91725e-07, No Iterations 1
DICPCG:  Solving for p_rgh, Initial residual = 0.0205526, Final residual = 0.00013621, No Iterations 18
diagonal:  Solving for rho, Initial residual = 0, Final residual = 0, No Iterations 0
time step continuity errors : sum local = 8.57565e-09, global = 9.97847e-11, cumulative = 3.71697e-07
DICPCG:  Solving for p_rgh, Initial residual = 0.000377631, Final residual = 9.42793e-09, No Iterations 33
diagonal:  Solving for rho, Initial residual = 0, Final residual = 0, No Iterations 0
time step continuity errors : sum local = 1.42645e-10, global = -1.42636e-10, cumulative = 3.71554e-07
DILUPBiCGStab:  Solving for epsilon, Initial residual = 0.000464185, Final residual = 4.81901e-08, No Iterations 1
DILUPBiCGStab:  Solving for k, Initial residual = 0.0105636, Final residual = 5.36107e-10, No Iterations 1
ExecutionTime = 0.13 s  ClockTime = 0 s

Courant Number mean: 0.000734797 max: 0.0343962
Time = 0.52

diagonal:  Solving for rho, Initial residual = 0, Final residual = 0, No Iterations 0
DILUPBiCGStab:  Solving for Ux, Initial residual = 0.010079, Final residual = 5.10161e-10, No Iterations 1
DILUPBiCGStab:  Solving for Uy, Initial residual = 0.0047059, Final residual = 3.0906e-10, No Iterations 1
DILUPBiCGStab:  Solving for h, Initial residual = 0.00645506, Final residual = 9.62506e-07, No Iterations 1
DICPCG:  Solving for p_rgh, Initial residual = 0.0292637, Final residual = 0.000180207, No Iterations 20
diagonal:  Solving for rho, Initial residual = 0, Final residual = 0, No Iterations 0
time step continuity errors : sum local = 1.07507e-08, global = 2.11119e-10, cumulative = 3.71766e-07
DICPCG:  Solving for p_rgh, Initial residual = 0.000493217, Final residual = 5.18044e-09, No Iterations 34
diagonal:  Solving for rho, Initial residual = 0, Final residual = 0, No Iterations 0
time step continuity errors : sum local = 2.01049e-10, global = -2.01049e-10, cumulative = 3.71564e-07
DILUPBiCGStab:  Solving for epsilon, Initial residual = 0.000476877, Final residual = 4.76399e-08, No Iterations 1
DILUPBiCGStab:  Solving for k, Initial residual = 0.0103784, Final residual = 5.2602e-10, No Iterations 1
ExecutionTime = 0.13 s  ClockTime = 0 s

Courant Number mean: 0.000740136 max: 0.0345163
Time = 0.53

diagonal:  Solving for rho, Initial residual = 0, Final residual = 0, No Iterations 0
DILUPBiCGStab:  Solving for Ux, Initial residual = 0.00667942, Final residual = 2.94712e-10, No Iterations 1
DILUPBiCGStab:  Solving for Uy, Initial residual = 0.00314857, Final residual = 7.20639e-07, No Iterations 1
DILUPBiCGStab:  Solving for h, Initial residual = 0.00682924, Final residual = 4.45227e-10, No Iterations 1
DICPCG:  Solving for p_rgh, Initial residual = 0.0353945, Final residual = 0.000229681, No Iterations 20
diagonal:  Solving for rho, Initial residual = 0, Final residual = 0, No Iterations 0
time step continuity errors : sum local = 1.2505e-08, global = 1.29264e-10, cumulative = 3.71694e-07
DICPCG:  Solving for p_rgh, Initial residual = 0.00060049, Final residual = 6.8739e-09, No Iterations 34
diagonal:  Solving for rho, Initial residual = 0, Final residual = 0, No Iterations 0
time step continuity errors : sum local = 2.20992e-10, global = -2.20992e-10, cumulative = 3.71473e-07
DILUPBiCGStab:  Solving for epsilon, Initial residual = 0.000489648, Final residual = 4.71199e-08, No Iterations 1
DILUPBiCGStab:  Solving for k, Initial residual = 0.0102005, Final residual = 5.16272e-10, No Iterations 1
ExecutionTime = 0.13 s  ClockTime = 0 s

Courant Number mean: 0.000742298 max: 0.0345407
Time = 0.54

diagonal:  Solving for rho, Initial residual = 0, Final residual = 0, No Iterations 0
DILUPBiCGStab:  Solving for Ux, Initial residual = 0.00348298, Final residual = 3.13168e-07, No Iterations 1
DILUPBiCGStab:  Solving for Uy, Initial residual = 0.0022658, Final residual = 3.61235e-07, No Iterations 1
DILUPBiCGStab:  Solving for h, Initial residual = 0.00686765, Final residual = 4.5395e-10, No Iterations 1
DICPCG:  Solving for p_rgh, Initial residual = 0.0375826, Final residual = 0.000361826, No Iterations 17
diagonal:  Solving for rho, Initial residual = 0, Final residual = 0, No Iterations 0
time step continuity errors : sum local = 1.76462e-08, global = -3.86673e-10, cumulative = 3.71086e-07
DICPCG:  Solving for p_rgh, Initial residual = 0.00071832, Final residual = 5.98113e-09, No Iterations 34
diagonal:  Solving for rho, Initial residual = 0, Final residual = 0, No Iterations 0
time step continuity errors : sum local = 2.04478e-10, global = -2.04478e-10, cumulative = 3.70882e-07
DILUPBiCGStab:  Solving for epsilon, Initial residual = 0.000502189, Final residual = 4.6641e-08, No Iterations 1
DILUPBiCGStab:  Solving for k, Initial residual = 0.0100294, Final residual = 5.06833e-10, No Iterations 1
ExecutionTime = 0.13 s  ClockTime = 0 s

Courant Number mean: 0.000741655 max: 0.0344806
Time = 0.55

diagonal:  Solving for rho, Initial residual = 0, Final residual = 0, No Iterations 0
DILUPBiCGStab:  Solving for Ux, Initial residual = 0.00505784, Final residual = 2.3503e-10, No Iterations 1
DILUPBiCGStab:  Solving for Uy, Initial residual = 0.00269113, Final residual = 4.55533e-07, No Iterations 1
DILUPBiCGStab:  Solving for h, Initial residual = 0.00660487, Final residual = 4.24552e-10, No Iterations 1
DICPCG:  Solving for p_rgh, Initial residual = 0.0339842, Final residual = 0.000321474, No Iterations 15
diagonal:  Solving for rho, Initial residual = 0, Final residual = 0, No Iterations 0
time step continuity errors : sum local = 1.41353e-08, global = 7.78238e-10, cumulative = 3.7166e-07
DICPCG:  Solving for p_rgh, Initial residual = 0.00052909, Final residual = 5.19126e-09, No Iterations 32
diagonal:  Solving for rho, Initial residual = 0, Final residual = 0, No Iterations 0
time step continuity errors : sum local = 1.58994e-10, global = -1.58994e-10, cumulative = 3.71501e-07
DILUPBiCGStab:  Solving for epsilon, Initial residual = 0.000514467, Final residual = 4.62126e-08, No Iterations 1
DILUPBiCGStab:  Solving for k, Initial residual = 0.00986484, Final residual = 4.97646e-10, No Iterations 1
ExecutionTime = 0.14 s  ClockTime = 0 s

Courant Number mean: 0.000739008 max: 0.0343584
Time = 0.56

diagonal:  Solving for rho, Initial residual = 0, Final residual = 0, No Iterations 0
DILUPBiCGStab:  Solving for Ux, Initial residual = 0.00692979, Final residual = 3.71285e-10, No Iterations 1
DILUPBiCGStab:  Solving for Uy, Initial residual = 0.00341554, Final residual = 6.68989e-07, No Iterations 1
DILUPBiCGStab:  Solving for h, Initial residual = 0.00611707, Final residual = 9.35913e-07, No Iterations 1
DICPCG:  Solving for p_rgh, Initial residual = 0.024292, Final residual = 0.000183671, No Iterations 20
diagonal:  Solving for rho, Initial residual = 0, Final residual = 0, No Iterations 0
time step continuity errors : sum local = 7.31753e-09, global = 3.15604e-10, cumulative = 3.71816e-07
DICPCG:  Solving for p_rgh, Initial residual = 0.000301535, Final residual = 5.8257e-09, No Iterations 33
diagonal:  Solving for rho, Initial residual = 0, Final residual = 0, No Iterations 0
time step continuity errors : sum local = 9.52548e-11, global = -9.52548e-11, cumulative = 3.71721e-07
DILUPBiCGStab:  Solving for epsilon, Initial residual = 0.000526466, Final residual = 4.58598e-08, No Iterations 1
DILUPBiCGStab:  Solving for k, Initial residual = 0.00970621, Final residual = 4.88719e-10, No Iterations 1
ExecutionTime = 0.14 s  ClockTime = 0 s

Courant Number mean: 0.000735456 max: 0.0342032
Time = 0.57

diagonal:  Solving for rho, Initial residual = 0, Final residual = 0, No Iterations 0
DILUPBiCGStab:  Solving for Ux, Initial residual = 0.00795882, Final residual = 4.62942e-10, No Iterations 1
DILUPBiCGStab:  Solving for Uy, Initial residual = 0.00384627, Final residual = 8.13271e-07, No Iterations 1
DILUPBiCGStab:  Solving for h, Initial residual = 0.00550705, Final residual = 7.46154e-07, No Iterations 1
DICPCG:  Solving for p_rgh, Initial residual = 0.0102324, Final residual = 6.92181e-05, No Iterations 22
diagonal:  Solving for rho, Initial residual = 0, Final residual = 0, No Iterations 0
time step continuity errors : sum local = 2.73359e-09, global = 2.812e-10, cumulative = 3.72002e-07
DICPCG:  Solving for p_rgh, Initial residual = 0.000115547, Final residual = 7.18658e-09, No Iterations 30
diagonal:  Solving for rho, Initial residual = 0, Final residual = 0, No Iterations 0
time step continuity errors : sum local = 2.56213e-11, global = -2.56213e-11, cumulative = 3.71977e-07
DILUPBiCGStab:  Solving for epsilon, Initial residual = 0.000538215, Final residual = 4.55549e-08, No Iterations 1
DILUPBiCGStab:  Solving for k, Initial residual = 0.00955318, Final residual = 4.80159e-10, No Iterations 1
ExecutionTime = 0.14 s  ClockTime = 0 s

Courant Number mean: 0.000731928 max: 0.0340449
Time = 0.58

diagonal:  Solving for rho, Initial residual = 0, Final residual = 0, No Iterations 0
DILUPBiCGStab:  Solving for Ux, Initial residual = 0.00800186, Final residual = 4.68117e-10, No Iterations 1
DILUPBiCGStab:  Solving for Uy, Initial residual = 0.003865, Final residual = 8.25473e-07, No Iterations 1
DILUPBiCGStab:  Solving for h, Initial residual = 0.00489615, Final residual = 5.51186e-07, No Iterations 1
DICPCG:  Solving for p_rgh, Initial residual = 0.0125022, Final residual = 0.000100724, No Iterations 21
diagonal:  Solving for rho, Initial residual = 0, Final residual = 0, No Iterations 0
time step continuity errors : sum local = 3.76825e-09, global = 2.65515e-10, cumulative = 3.72242e-07
DICPCG:  Solving for p_rgh, Initial residual = 0.000214636, Final residual = 5.49033e-09, No Iterations 33
diagonal:  Solving for rho, Initial residual = 0, Final residual = 0, No Iterations 0
time step continuity errors : sum local = 3.85295e-11, global = 3.84887e-11, cumulative = 3.72281e-07
DILUPBiCGStab:  Solving for epsilon, Initial residual = 0.000550113, Final residual = 4.53319e-08, No Iterations 1
DILUPBiCGStab:  Solving for k, Initial residual = 0.00940544, Final residual = 4.72582e-10, No Iterations 1
ExecutionTime = 0.14 s  ClockTime = 0 s

Courant Number mean: 0.00072923 max: 0.0339101
Time = 0.59

diagonal:  Solving for rho, Initial residual = 0, Final residual = 0, No Iterations 0
DILUPBiCGStab:  Solving for Ux, Initial residual = 0.00715042, Final residual = 3.96437e-10, No Iterations 1
DILUPBiCGStab:  Solving for Uy, Initial residual = 0.00350666, Final residual = 7.18684e-07, No Iterations 1
DILUPBiCGStab:  Solving for h, Initial residual = 0.00489652, Final residual = 5.55242e-07, No Iterations 1
DICPCG:  Solving for p_rgh, Initial residual = 0.0206987, Final residual = 0.000168477, No Iterations 17
diagonal:  Solving for rho, Initial residual = 0, Final residual = 0, No Iterations 0
time step continuity errors : sum local = 6.54057e-09, global = 3.13475e-10, cumulative = 3.72594e-07
DICPCG:  Solving for p_rgh, Initial residual = 0.000363879, Final residual = 7.46391e-09, No Iterations 33
diagonal:  Solving for rho, Initial residual = 0, Final residual = 0, No Iterations 0
time step continuity errors : sum local = 8.79798e-11, global = 8.79798e-11, cumulative = 3.72682e-07
DILUPBiCGStab:  Solving for epsilon, Initial residual = 0.000561662, Final residual = 4.51895e-08, No Iterations 1
DILUPBiCGStab:  Solving for k, Initial residual = 0.00926269, Final residual = 4.65567e-10, No Iterations 1
ExecutionTime = 0.14 s  ClockTime = 0 s

Courant Number mean: 0.000727846 max: 0.0338181
Time = 0.6

[...]
DICPCG:  Solving for p_rgh, Initial residual = 8.31139e-06, Final residual = 8.9734e-09, No Iterations 26
diagonal:  Solving for rho, Initial residual = 0, Final residual = 0, No Iterations 0
time step continuity errors : sum local = 5.58763e-13, global = -1.94376e-13, cumulative = 4.65312e-07
DILUPBiCGStab:  Solving for epsilon, Initial residual = 0.00211701, Final residual = 7.17286e-08, No Iterations 1
DILUPBiCGStab:  Solving for k, Initial residual = 0.00171242, Final residual = 9.68863e-08, No Iterations 1
ExecutionTime = 1.59 s  ClockTime = 2 s

Courant Number mean: 0.00158352 max: 0.0354552
Time = 6.76

diagonal:  Solving for rho, Initial residual = 0, Final residual = 0, No Iterations 0
DILUPBiCGStab:  Solving for Ux, Initial residual = 0.00037135, Final residual = 1.73994e-08, No Iterations 1
DILUPBiCGStab:  Solving for Uy, Initial residual = 0.000597913, Final residual = 3.72027e-08, No Iterations 1
DILUPBiCGStab:  Solving for h, Initial residual = 0.000385376, Final residual = 2.30896e-08, No Iterations 1
DICPCG:  Solving for p_rgh, Initial residual = 0.0004384, Final residual = 3.64125e-06, No Iterations 18
diagonal:  Solving for rho, Initial residual = 0, Final residual = 0, No Iterations 0
time step continuity errors : sum local = 2.80733e-10, global = 8.87759e-11, cumulative = 4.65401e-07
DICPCG:  Solving for p_rgh, Initial residual = 8.27158e-06, Final residual = 9.02218e-09, No Iterations 26
diagonal:  Solving for rho, Initial residual = 0, Final residual = 0, No Iterations 0
time step continuity errors : sum local = 5.59012e-13, global = -1.89584e-13, cumulative = 4.65401e-07
DILUPBiCGStab:  Solving for epsilon, Initial residual = 0.00211391, Final residual = 7.15071e-08, No Iterations 1
DILUPBiCGStab:  Solving for k, Initial residual = 0.00171099, Final residual = 9.66519e-08, No Iterations 1
ExecutionTime = 1.59 s  ClockTime = 2 s

Courant Number mean: 0.00158483 max: 0.0354558
Time = 6.77

diagonal:  Solving for rho, Initial residual = 0, Final residual = 0, No Iterations 0
DILUPBiCGStab:  Solving for Ux, Initial residual = 0.000370921, Final residual = 1.73771e-08, No Iterations 1
DILUPBiCGStab:  Solving for Uy, Initial residual = 0.000597362, Final residual = 3.7122e-08, No Iterations 1
DILUPBiCGStab:  Solving for h, Initial residual = 0.00038484, Final residual = 2.30275e-08, No Iterations 1
DICPCG:  Solving for p_rgh, Initial residual = 0.000438188, Final residual = 3.60742e-06, No Iterations 18
diagonal:  Solving for rho, Initial residual = 0, Final residual = 0, No Iterations 0
time step continuity errors : sum local = 2.79051e-10, global = 8.8675e-11, cumulative = 4.65489e-07
DICPCG:  Solving for p_rgh, Initial residual = 8.23043e-06, Final residual = 9.06413e-09, No Iterations 26
diagonal:  Solving for rho, Initial residual = 0, Final residual = 0, No Iterations 0
time step continuity errors : sum local = 5.62302e-13, global = -1.87654e-13, cumulative = 4.65489e-07
DILUPBiCGStab:  Solving for epsilon, Initial residual = 0.00211081, Final residual = 7.12865e-08, No Iterations 1
DILUPBiCGStab:  Solving for k, Initial residual = 0.00170957, Final residual = 9.64183e-08, No Iterations 1
ExecutionTime = 1.6 s  ClockTime = 2 s

Courant Number mean: 0.00158615 max: 0.0354563
Time = 6.78

diagonal:  Solving for rho, Initial residual = 0, Final residual = 0, No Iterations 0
DILUPBiCGStab:  Solving for Ux, Initial residual = 0.000370489, Final residual = 1.73543e-08, No Iterations 1
DILUPBiCGStab:  Solving for Uy, Initial residual = 0.0005968, Final residual = 3.70411e-08, No Iterations 1
DILUPBiCGStab:  Solving for h, Initial residual = 0.000384298, Final residual = 2.29652e-08, No Iterations 1
DICPCG:  Solving for p_rgh, Initial residual = 0.000438097, Final residual = 3.57281e-06, No Iterations 18
diagonal:  Solving for rho, Initial residual = 0, Final residual = 0, No Iterations 0
time step continuity errors : sum local = 2.77355e-10, global = 8.85802e-11, cumulative = 4.65578e-07
DICPCG:  Solving for p_rgh, Initial residual = 8.19015e-06, Final residual = 9.0964e-09, No Iterations 26
diagonal:  Solving for rho, Initial residual = 0, Final residual = 0, No Iterations 0
time step continuity errors : sum local = 5.66317e-13, global = -1.81799e-13, cumulative = 4.65577e-07
DILUPBiCGStab:  Solving for epsilon, Initial residual = 0.00210772, Final residual = 7.10667e-08, No Iterations 1
DILUPBiCGStab:  Solving for k, Initial residual = 0.00170815, Final residual = 9.61855e-08, No Iterations 1
ExecutionTime = 1.6 s  ClockTime = 2 s

Courant Number mean: 0.00158746 max: 0.0354569
Time = 6.79

diagonal:  Solving for rho, Initial residual = 0, Final residual = 0, No Iterations 0
DILUPBiCGStab:  Solving for Ux, Initial residual = 0.000370054, Final residual = 1.73311e-08, No Iterations 1
DILUPBiCGStab:  Solving for Uy, Initial residual = 0.000596235, Final residual = 3.69601e-08, No Iterations 1
DILUPBiCGStab:  Solving for h, Initial residual = 0.00038375, Final residual = 2.29026e-08, No Iterations 1
DICPCG:  Solving for p_rgh, Initial residual = 0.000437887, Final residual = 4.34948e-06, No Iterations 17
diagonal:  Solving for rho, Initial residual = 0, Final residual = 0, No Iterations 0
time step continuity errors : sum local = 3.06738e-10, global = 8.71688e-11, cumulative = 4.65665e-07
DICPCG:  Solving for p_rgh, Initial residual = 9.14532e-06, Final residual = 9.44318e-09, No Iterations 27
diagonal:  Solving for rho, Initial residual = 0, Final residual = 0, No Iterations 0
time step continuity errors : sum local = 5.8413e-13, global = -1.84402e-13, cumulative = 4.65664e-07
DILUPBiCGStab:  Solving for epsilon, Initial residual = 0.00210464, Final residual = 7.08478e-08, No Iterations 1
DILUPBiCGStab:  Solving for k, Initial residual = 0.00170673, Final residual = 9.59536e-08, No Iterations 1
ExecutionTime = 1.6 s  ClockTime = 2 s

Courant Number mean: 0.00158878 max: 0.0354574
Time = 6.8

diagonal:  Solving for rho, Initial residual = 0, Final residual = 0, No Iterations 0
DILUPBiCGStab:  Solving for Ux, Initial residual = 0.000369615, Final residual = 1.73074e-08, No Iterations 1
DILUPBiCGStab:  Solving for Uy, Initial residual = 0.000595666, Final residual = 3.68791e-08, No Iterations 1
DILUPBiCGStab:  Solving for h, Initial residual = 0.000383198, Final residual = 2.28399e-08, No Iterations 1
DICPCG:  Solving for p_rgh, Initial residual = 0.000437657, Final residual = 4.30909e-06, No Iterations 17
diagonal:  Solving for rho, Initial residual = 0, Final residual = 0, No Iterations 0
time step continuity errors : sum local = 3.05021e-10, global = 8.70916e-11, cumulative = 4.65751e-07
DICPCG:  Solving for p_rgh, Initial residual = 9.10007e-06, Final residual = 9.4006e-09, No Iterations 27
diagonal:  Solving for rho, Initial residual = 0, Final residual = 0, No Iterations 0
time step continuity errors : sum local = 5.73066e-13, global = -1.88564e-13, cumulative = 4.65751e-07
DILUPBiCGStab:  Solving for epsilon, Initial residual = 0.00210157, Final residual = 7.06297e-08, No Iterations 1
DILUPBiCGStab:  Solving for k, Initial residual = 0.00170532, Final residual = 9.57229e-08, No Iterations 1
ExecutionTime = 1.6 s  ClockTime = 2 s

Courant Number mean: 0.00159009 max: 0.035458
Time = 6.81

diagonal:  Solving for rho, Initial residual = 0, Final residual = 0, No Iterations 0
DILUPBiCGStab:  Solving for Ux, Initial residual = 0.000369173, Final residual = 1.72833e-08, No Iterations 1
DILUPBiCGStab:  Solving for Uy, Initial residual = 0.000595094, Final residual = 3.67981e-08, No Iterations 1
DILUPBiCGStab:  Solving for h, Initial residual = 0.000382654, Final residual = 2.27794e-08, No Iterations 1
DICPCG:  Solving for p_rgh, Initial residual = 0.000437403, Final residual = 4.27328e-06, No Iterations 17
diagonal:  Solving for rho, Initial residual = 0, Final residual = 0, No Iterations 0
time step continuity errors : sum local = 3.035e-10, global = 8.70092e-11, cumulative = 4.65838e-07
DICPCG:  Solving for p_rgh, Initial residual = 9.05854e-06, Final residual = 9.35474e-09, No Iterations 27
diagonal:  Solving for rho, Initial residual = 0, Final residual = 0, No Iterations 0
time step continuity errors : sum local = 5.80222e-13, global = -1.86442e-13, cumulative = 4.65838e-07
DILUPBiCGStab:  Solving for epsilon, Initial residual = 0.0020985, Final residual = 7.04125e-08, No Iterations 1
DILUPBiCGStab:  Solving for k, Initial residual = 0.00170391, Final residual = 9.5493e-08, No Iterations 1
ExecutionTime = 1.61 s  ClockTime = 2 s

Courant Number mean: 0.00159141 max: 0.0354586
Time = 6.82

diagonal:  Solving for rho, Initial residual = 0, Final residual = 0, No Iterations 0
DILUPBiCGStab:  Solving for Ux, Initial residual = 0.000368728, Final residual = 1.72588e-08, No Iterations 1
DILUPBiCGStab:  Solving for Uy, Initial residual = 0.000594516, Final residual = 3.67171e-08, No Iterations 1
DILUPBiCGStab:  Solving for h, Initial residual = 0.000382105, Final residual = 2.27211e-08, No Iterations 1
DICPCG:  Solving for p_rgh, Initial residual = 0.000437109, Final residual = 4.2385e-06, No Iterations 17
diagonal:  Solving for rho, Initial residual = 0, Final residual = 0, No Iterations 0
time step continuity errors : sum local = 3.02032e-10, global = 8.69149e-11, cumulative = 4.65925e-07
DICPCG:  Solving for p_rgh, Initial residual = 9.0179e-06, Final residual = 9.31151e-09, No Iterations 27
diagonal:  Solving for rho, Initial residual = 0, Final residual = 0, No Iterations 0
time step continuity errors : sum local = 5.59733e-13, global = -1.8582e-13, cumulative = 4.65925e-07
DILUPBiCGStab:  Solving for epsilon, Initial residual = 0.00209544, Final residual = 7.0196e-08, No Iterations 1
DILUPBiCGStab:  Solving for k, Initial residual = 0.0017025, Final residual = 9.52638e-08, No Iterations 1
ExecutionTime = 1.61 s  ClockTime = 2 s

Courant Number mean: 0.00159272 max: 0.0354591
Time = 6.83

diagonal:  Solving for rho, Initial residual = 0, Final residual = 0, No Iterations 0
DILUPBiCGStab:  Solving for Ux, Initial residual = 0.00036828, Final residual = 1.72339e-08, No Iterations 1
DILUPBiCGStab:  Solving for Uy, Initial residual = 0.000593937, Final residual = 3.66359e-08, No Iterations 1
DILUPBiCGStab:  Solving for h, Initial residual = 0.000381552, Final residual = 2.26625e-08, No Iterations 1
DICPCG:  Solving for p_rgh, Initial residual = 0.000436754, Final residual = 4.20415e-06, No Iterations 17
diagonal:  Solving for rho, Initial residual = 0, Final residual = 0, No Iterations 0
time step continuity errors : sum local = 3.00563e-10, global = 8.68196e-11, cumulative = 4.66012e-07
DICPCG:  Solving for p_rgh, Initial residual = 8.97723e-06, Final residual = 9.26779e-09, No Iterations 27
diagonal:  Solving for rho, Initial residual = 0, Final residual = 0, No Iterations 0
time step continuity errors : sum local = 5.5072e-13, global = -1.86794e-13, cumulative = 4.66011e-07
DILUPBiCGStab:  Solving for epsilon, Initial residual = 0.00209239, Final residual = 6.99806e-08, No Iterations 1
DILUPBiCGStab:  Solving for k, Initial residual = 0.0017011, Final residual = 9.50353e-08, No Iterations 1
ExecutionTime = 1.61 s  ClockTime = 2 s

Courant Number mean: 0.00159404 max: 0.0354597
Time = 6.84

diagonal:  Solving for rho, Initial residual = 0, Final residual = 0, No Iterations 0
DILUPBiCGStab:  Solving for Ux, Initial residual = 0.00036783, Final residual = 1.72086e-08, No Iterations 1
DILUPBiCGStab:  Solving for Uy, Initial residual = 0.000593358, Final residual = 3.65546e-08, No Iterations 1
DILUPBiCGStab:  Solving for h, Initial residual = 0.000380993, Final residual = 2.26037e-08, No Iterations 1
DICPCG:  Solving for p_rgh, Initial residual = 0.000436342, Final residual = 4.17021e-06, No Iterations 17
diagonal:  Solving for rho, Initial residual = 0, Final residual = 0, No Iterations 0
time step continuity errors : sum local = 2.99107e-10, global = 8.67183e-11, cumulative = 4.66098e-07
DICPCG:  Solving for p_rgh, Initial residual = 8.93703e-06, Final residual = 9.22425e-09, No Iterations 27
diagonal:  Solving for rho, Initial residual = 0, Final residual = 0, No Iterations 0
time step continuity errors : sum local = 5.43782e-13, global = -1.90147e-13, cumulative = 4.66098e-07
DILUPBiCGStab:  Solving for epsilon, Initial residual = 0.00208935, Final residual = 6.97662e-08, No Iterations 1
DILUPBiCGStab:  Solving for k, Initial residual = 0.0016997, Final residual = 9.48076e-08, No Iterations 1
ExecutionTime = 1.61 s  ClockTime = 2 s

Courant Number mean: 0.00159535 max: 0.0354602
Time = 6.85

diagonal:  Solving for rho, Initial residual = 0, Final residual = 0, No Iterations 0
DILUPBiCGStab:  Solving for Ux, Initial residual = 0.000367378, Final residual = 1.7183e-08, No Iterations 1
DILUPBiCGStab:  Solving for Uy, Initial residual = 0.000592775, Final residual = 3.64732e-08, No Iterations 1
DILUPBiCGStab:  Solving for h, Initial residual = 0.000380433, Final residual = 2.25447e-08, No Iterations 1
DICPCG:  Solving for p_rgh, Initial residual = 0.000435854, Final residual = 4.13608e-06, No Iterations 17
diagonal:  Solving for rho, Initial residual = 0, Final residual = 0, No Iterations 0
time step continuity errors : sum local = 2.97634e-10, global = 8.65924e-11, cumulative = 4.66185e-07
DICPCG:  Solving for p_rgh, Initial residual = 8.89621e-06, Final residual = 9.18066e-09, No Iterations 27
diagonal:  Solving for rho, Initial residual = 0, Final residual = 0, No Iterations 0
time step continuity errors : sum local = 5.64379e-13, global = -1.87127e-13, cumulative = 4.66184e-07
DILUPBiCGStab:  Solving for epsilon, Initial residual = 0.00208632, Final residual = 6.95526e-08, No Iterations 1
DILUPBiCGStab:  Solving for k, Initial residual = 0.0016983, Final residual = 9.45805e-08, No Iterations 1
ExecutionTime = 1.61 s  ClockTime = 2 s

Courant Number mean: 0.00159668 max: 0.0354608
Time = 6.86

diagonal:  Solving for rho, Initial residual = 0, Final residual = 0, No Iterations 0
DILUPBiCGStab:  Solving for Ux, Initial residual = 0.000366923, Final residual = 1.71571e-08, No Iterations 1
DILUPBiCGStab:  Solving for Uy, Initial residual = 0.000592189, Final residual = 3.63916e-08, No Iterations 1
DILUPBiCGStab:  Solving for h, Initial residual = 0.000379873, Final residual = 2.24857e-08, No Iterations 1
DICPCG:  Solving for p_rgh, Initial residual = 0.000435301, Final residual = 4.10065e-06, No Iterations 17
diagonal:  Solving for rho, Initial residual = 0, Final residual = 0, No Iterations 0
time step continuity errors : sum local = 2.961e-10, global = 8.64708e-11, cumulative = 4.66271e-07
DICPCG:  Solving for p_rgh, Initial residual = 8.85476e-06, Final residual = 9.13207e-09, No Iterations 27
diagonal:  Solving for rho, Initial residual = 0, Final residual = 0, No Iterations 0
time step continuity errors : sum local = 5.72959e-13, global = -1.92226e-13, cumulative = 4.66271e-07
DILUPBiCGStab:  Solving for epsilon, Initial residual = 0.00208329, Final residual = 6.93397e-08, No Iterations 1
DILUPBiCGStab:  Solving for k, Initial residual = 0.00169691, Final residual = 9.43542e-08, No Iterations 1
ExecutionTime = 1.62 s  ClockTime = 2 s

Courant Number mean: 0.001598 max: 0.0354614
Time = 6.87

diagonal:  Solving for rho, Initial residual = 0, Final residual = 0, No Iterations 0
DILUPBiCGStab:  Solving for Ux, Initial residual = 0.000366465, Final residual = 1.71308e-08, No Iterations 1
DILUPBiCGStab:  Solving for Uy, Initial residual = 0.0005916, Final residual = 3.63102e-08, No Iterations 1
DILUPBiCGStab:  Solving for h, Initial residual = 0.000379313, Final residual = 2.24264e-08, No Iterations 1
DICPCG:  Solving for p_rgh, Initial residual = 0.000434744, Final residual = 4.06665e-06, No Iterations 17
diagonal:  Solving for rho, Initial residual = 0, Final residual = 0, No Iterations 0
time step continuity errors : sum local = 2.94613e-10, global = 8.63599e-11, cumulative = 4.66357e-07
DICPCG:  Solving for p_rgh, Initial residual = 8.81442e-06, Final residual = 9.08225e-09, No Iterations 27
diagonal:  Solving for rho, Initial residual = 0, Final residual = 0, No Iterations 0
time step continuity errors : sum local = 5.47994e-13, global = -1.90842e-13, cumulative = 4.66357e-07
DILUPBiCGStab:  Solving for epsilon, Initial residual = 0.00208027, Final residual = 6.91277e-08, No Iterations 1
DILUPBiCGStab:  Solving for k, Initial residual = 0.00169552, Final residual = 9.41286e-08, No Iterations 1
ExecutionTime = 1.62 s  ClockTime = 2 s

Courant Number mean: 0.00159933 max: 0.0354619
Time = 6.88

diagonal:  Solving for rho, Initial residual = 0, Final residual = 0, No Iterations 0
DILUPBiCGStab:  Solving for Ux, Initial residual = 0.000366005, Final residual = 1.71042e-08, No Iterations 1
DILUPBiCGStab:  Solving for Uy, Initial residual = 0.000591009, Final residual = 3.62292e-08, No Iterations 1
DILUPBiCGStab:  Solving for h, Initial residual = 0.000378749, Final residual = 2.23671e-08, No Iterations 1
DICPCG:  Solving for p_rgh, Initial residual = 0.000434153, Final residual = 4.03473e-06, No Iterations 17
diagonal:  Solving for rho, Initial residual = 0, Final residual = 0, No Iterations 0
time step continuity errors : sum local = 2.93237e-10, global = 8.62314e-11, cumulative = 4.66443e-07
DICPCG:  Solving for p_rgh, Initial residual = 8.77477e-06, Final residual = 9.03481e-09, No Iterations 27
diagonal:  Solving for rho, Initial residual = 0, Final residual = 0, No Iterations 0
time step continuity errors : sum local = 5.4946e-13, global = -1.79515e-13, cumulative = 4.66443e-07
DILUPBiCGStab:  Solving for epsilon, Initial residual = 0.00207726, Final residual = 6.89166e-08, No Iterations 1
DILUPBiCGStab:  Solving for k, Initial residual = 0.00169413, Final residual = 9.39038e-08, No Iterations 1
ExecutionTime = 1.62 s  ClockTime = 2 s

Courant Number mean: 0.00160065 max: 0.0354625
Time = 6.89

diagonal:  Solving for rho, Initial residual = 0, Final residual = 0, No Iterations 0
DILUPBiCGStab:  Solving for Ux, Initial residual = 0.000365545, Final residual = 1.70773e-08, No Iterations 1
DILUPBiCGStab:  Solving for Uy, Initial residual = 0.000590415, Final residual = 3.61482e-08, No Iterations 1
DILUPBiCGStab:  Solving for h, Initial residual = 0.000378181, Final residual = 2.23076e-08, No Iterations 1
DICPCG:  Solving for p_rgh, Initial residual = 0.00043354, Final residual = 4.00446e-06, No Iterations 17
diagonal:  Solving for rho, Initial residual = 0, Final residual = 0, No Iterations 0
time step continuity errors : sum local = 2.91904e-10, global = 8.61155e-11, cumulative = 4.66529e-07
DICPCG:  Solving for p_rgh, Initial residual = 8.73593e-06, Final residual = 8.98998e-09, No Iterations 27
diagonal:  Solving for rho, Initial residual = 0, Final residual = 0, No Iterations 0
time step continuity errors : sum local = 5.31959e-13, global = -1.85241e-13, cumulative = 4.66529e-07
DILUPBiCGStab:  Solving for epsilon, Initial residual = 0.00207426, Final residual = 6.87062e-08, No Iterations 1
DILUPBiCGStab:  Solving for k, Initial residual = 0.00169274, Final residual = 9.36797e-08, No Iterations 1
ExecutionTime = 1.62 s  ClockTime = 2 s

Courant Number mean: 0.00160197 max: 0.035463
Time = 6.9

diagonal:  Solving for rho, Initial residual = 0, Final residual = 0, No Iterations 0
DILUPBiCGStab:  Solving for Ux, Initial residual = 0.000365083, Final residual = 1.70501e-08, No Iterations 1
DILUPBiCGStab:  Solving for Uy, Initial residual = 0.00058982, Final residual = 3.60673e-08, No Iterations 1
DILUPBiCGStab:  Solving for h, Initial residual = 0.00037761, Final residual = 2.22479e-08, No Iterations 1
DICPCG:  Solving for p_rgh, Initial residual = 0.000432913, Final residual = 3.97466e-06, No Iterations 17
diagonal:  Solving for rho, Initial residual = 0, Final residual = 0, No Iterations 0
time step continuity errors : sum local = 2.90561e-10, global = 8.5996e-11, cumulative = 4.66615e-07
DICPCG:  Solving for p_rgh, Initial residual = 8.69686e-06, Final residual = 8.94412e-09, No Iterations 27
