/*---------------------------------------------------------------------------*\
  =========                 |
  \\      /  F ield         | OpenFOAM: The Open Source CFD Toolbox
   \\    /   O peration     | Website:  https://openfoam.org
    \\  /    A nd           | Version:  6
     \\/     M anipulation  |
\*---------------------------------------------------------------------------*/
Build  : 6-e29811f5dff8
Exec   : buoyantPimpleFoam -case /home/mamitsu/OpenFOAM/mamitsu-6/run/aircond5/play/case3
Date   : Nov 23 2020
Time   : 01:33:20
Host   : "mamitsu-desktop"
PID    : 25964
I/O    : uncollated
Case   : /home/mamitsu/OpenFOAM/mamitsu-6/run/aircond5/play/case3
nProcs : 1
sigFpe : Enabling floating point exception trapping (FOAM_SIGFPE).
fileModificationChecking : Monitoring run-time modified files using timeStampMaster (fileModificationSkew 10)
allowSystemOperations : Allowing user-supplied system call operations

// * * * * * * * * * * * * * * * * * * * * * * * * * * * * * * * * * * * * * //
Create time

Create mesh for time = 710


PIMPLE: No convergence criteria found


PIMPLE: Operating solver in PISO mode

Reading thermophysical properties

Selecting thermodynamics package
{
    type            heRhoThermo;
    mixture         pureMixture;
    transport       const;
    thermo          hConst;
    equationOfState perfectGas;
    specie          specie;
    energy          sensibleEnthalpy;
}

Reading field U

Reading/calculating face flux field phi

Creating turbulence model

Selecting turbulence model type RAS
Selecting RAS turbulence model kEpsilon
RAS
{
    RASModel        kEpsilon;
    turbulence      on;
    printCoeffs     on;
    Cmu             0.09;
    C1              1.44;
    C2              1.92;
    C3              0;
    sigmak          1;
    sigmaEps        1.3;
}


Reading g

Reading hRef
Calculating field g.h

Reading field p_rgh

Creating field dpdt

Creating field kinetic energy K

No MRF models present

Radiation model not active: radiationProperties not found
Selecting radiationModel none
No finite volume options present
Courant Number mean: 0.00571354 max: 0.0279416

Starting time loop

Courant Number mean: 0.00571354 max: 0.0279416
Time = 710.01

diagonal:  Solving for rho, Initial residual = 0, Final residual = 0, No Iterations 0
DILUPBiCGStab:  Solving for Ux, Initial residual = 0.00143141, Final residual = 2.53877e-08, No Iterations 1
DILUPBiCGStab:  Solving for Uy, Initial residual = 0.0683917, Final residual = 5.8661e-07, No Iterations 1
DILUPBiCGStab:  Solving for h, Initial residual = 1.45171e-05, Final residual = 1.41898e-10, No Iterations 1
DICPCG:  Solving for p_rgh, Initial residual = 0.983794, Final residual = 0.00569969, No Iterations 4
diagonal:  Solving for rho, Initial residual = 0, Final residual = 0, No Iterations 0
time step continuity errors : sum local = 6.8351e-06, global = -1.48952e-07, cumulative = -1.48952e-07
DICPCG:  Solving for p_rgh, Initial residual = 0.118058, Final residual = 6.75281e-09, No Iterations 39
diagonal:  Solving for rho, Initial residual = 0, Final residual = 0, No Iterations 0
time step continuity errors : sum local = 3.09127e-10, global = 2.05493e-11, cumulative = -1.48932e-07
DILUPBiCGStab:  Solving for epsilon, Initial residual = 1.48706e-06, Final residual = 1.8491e-11, No Iterations 1
DILUPBiCGStab:  Solving for k, Initial residual = 2.50701e-06, Final residual = 3.86595e-11, No Iterations 1
ExecutionTime = 0.01 s  ClockTime = 0 s

Courant Number mean: 0.00571298 max: 0.0279465
Time = 710.02

diagonal:  Solving for rho, Initial residual = 0, Final residual = 0, No Iterations 0
DILUPBiCGStab:  Solving for Ux, Initial residual = 8.04786e-05, Final residual = 7.34709e-10, No Iterations 1
DILUPBiCGStab:  Solving for Uy, Initial residual = 0.000247282, Final residual = 2.79143e-09, No Iterations 1
DILUPBiCGStab:  Solving for h, Initial residual = 6.10628e-05, Final residual = 4.85705e-10, No Iterations 1
DICPCG:  Solving for p_rgh, Initial residual = 0.0756013, Final residual = 0.000718324, No Iterations 17
diagonal:  Solving for rho, Initial residual = 0, Final residual = 0, No Iterations 0
time step continuity errors : sum local = 4.31668e-08, global = 2.77604e-09, cumulative = -1.46156e-07
DICPCG:  Solving for p_rgh, Initial residual = 0.000768417, Final residual = 6.97042e-09, No Iterations 33
diagonal:  Solving for rho, Initial residual = 0, Final residual = 0, No Iterations 0
time step continuity errors : sum local = 1.03433e-11, global = 8.38583e-12, cumulative = -1.46147e-07
DILUPBiCGStab:  Solving for epsilon, Initial residual = 1.00682e-06, Final residual = 1.46467e-11, No Iterations 1
DILUPBiCGStab:  Solving for k, Initial residual = 1.6915e-06, Final residual = 2.52848e-11, No Iterations 1
ExecutionTime = 0.02 s  ClockTime = 0 s

Courant Number mean: 0.00571346 max: 0.0279388
Time = 710.03

diagonal:  Solving for rho, Initial residual = 0, Final residual = 0, No Iterations 0
DILUPBiCGStab:  Solving for Ux, Initial residual = 5.6033e-05, Final residual = 2.82734e-10, No Iterations 1
DILUPBiCGStab:  Solving for Uy, Initial residual = 0.00025309, Final residual = 2.89629e-09, No Iterations 1
DILUPBiCGStab:  Solving for h, Initial residual = 1.8666e-05, Final residual = 1.83244e-10, No Iterations 1
DICPCG:  Solving for p_rgh, Initial residual = 0.0373027, Final residual = 0.00024177, No Iterations 18
diagonal:  Solving for rho, Initial residual = 0, Final residual = 0, No Iterations 0
time step continuity errors : sum local = 1.4458e-08, global = 1.46495e-09, cumulative = -1.44683e-07
DICPCG:  Solving for p_rgh, Initial residual = 0.000275489, Final residual = 4.77004e-09, No Iterations 32
diagonal:  Solving for rho, Initial residual = 0, Final residual = 0, No Iterations 0
time step continuity errors : sum local = 5.53572e-12, global = 5.20698e-12, cumulative = -1.44677e-07
DILUPBiCGStab:  Solving for epsilon, Initial residual = 1.03761e-06, Final residual = 1.46035e-11, No Iterations 1
DILUPBiCGStab:  Solving for k, Initial residual = 1.69556e-06, Final residual = 2.5138e-11, No Iterations 1
ExecutionTime = 0.02 s  ClockTime = 0 s

Courant Number mean: 0.00571348 max: 0.0279373
Time = 710.04

diagonal:  Solving for rho, Initial residual = 0, Final residual = 0, No Iterations 0
DILUPBiCGStab:  Solving for Ux, Initial residual = 1.60525e-05, Final residual = 9.16498e-11, No Iterations 1
DILUPBiCGStab:  Solving for Uy, Initial residual = 2.86439e-05, Final residual = 2.67956e-10, No Iterations 1
DILUPBiCGStab:  Solving for h, Initial residual = 1.34417e-05, Final residual = 1.18177e-10, No Iterations 1
DICPCG:  Solving for p_rgh, Initial residual = 0.00209835, Final residual = 1.74099e-05, No Iterations 22
diagonal:  Solving for rho, Initial residual = 0, Final residual = 0, No Iterations 0
time step continuity errors : sum local = 1.02933e-09, global = 2.58418e-11, cumulative = -1.44651e-07
DICPCG:  Solving for p_rgh, Initial residual = 2.85522e-05, Final residual = 8.01554e-09, No Iterations 29
diagonal:  Solving for rho, Initial residual = 0, Final residual = 0, No Iterations 0
time step continuity errors : sum local = 8.03786e-12, global = 8.03389e-12, cumulative = -1.44643e-07
DILUPBiCGStab:  Solving for epsilon, Initial residual = 1.03406e-06, Final residual = 1.45694e-11, No Iterations 1
DILUPBiCGStab:  Solving for k, Initial residual = 1.70184e-06, Final residual = 2.51822e-11, No Iterations 1
ExecutionTime = 0.02 s  ClockTime = 0 s

Courant Number mean: 0.00571342 max: 0.0279376
Time = 710.05

diagonal:  Solving for rho, Initial residual = 0, Final residual = 0, No Iterations 0
DILUPBiCGStab:  Solving for Ux, Initial residual = 1.32987e-05, Final residual = 6.72493e-11, No Iterations 1
DILUPBiCGStab:  Solving for Uy, Initial residual = 2.16442e-05, Final residual = 1.56776e-10, No Iterations 1
DILUPBiCGStab:  Solving for h, Initial residual = 1.11833e-05, Final residual = 1.17501e-10, No Iterations 1
DICPCG:  Solving for p_rgh, Initial residual = 0.00122024, Final residual = 6.65667e-06, No Iterations 21
diagonal:  Solving for rho, Initial residual = 0, Final residual = 0, No Iterations 0
time step continuity errors : sum local = 3.95245e-10, global = -4.53707e-12, cumulative = -1.44648e-07
DICPCG:  Solving for p_rgh, Initial residual = 1.13188e-05, Final residual = 7.55414e-09, No Iterations 28
diagonal:  Solving for rho, Initial residual = 0, Final residual = 0, No Iterations 0
time step continuity errors : sum local = 8.0744e-12, global = 8.05902e-12, cumulative = -1.4464e-07
DILUPBiCGStab:  Solving for epsilon, Initial residual = 1.01407e-06, Final residual = 1.45085e-11, No Iterations 1
DILUPBiCGStab:  Solving for k, Initial residual = 1.69416e-06, Final residual = 2.5064e-11, No Iterations 1
ExecutionTime = 0.02 s  ClockTime = 0 s

Courant Number mean: 0.00571343 max: 0.0279383
Time = 710.06

diagonal:  Solving for rho, Initial residual = 0, Final residual = 0, No Iterations 0
DILUPBiCGStab:  Solving for Ux, Initial residual = 1.86889e-05, Final residual = 1.16345e-10, No Iterations 1
DILUPBiCGStab:  Solving for Uy, Initial residual = 8.22407e-06, Final residual = 7.40023e-11, No Iterations 1
DILUPBiCGStab:  Solving for h, Initial residual = 9.5616e-06, Final residual = 1.1092e-10, No Iterations 1
DICPCG:  Solving for p_rgh, Initial residual = 0.000929208, Final residual = 8.19091e-06, No Iterations 21
diagonal:  Solving for rho, Initial residual = 0, Final residual = 0, No Iterations 0
time step continuity errors : sum local = 4.87869e-10, global = -3.76785e-12, cumulative = -1.44644e-07
DICPCG:  Solving for p_rgh, Initial residual = 9.45327e-06, Final residual = 7.57302e-09, No Iterations 27
diagonal:  Solving for rho, Initial residual = 0, Final residual = 0, No Iterations 0
time step continuity errors : sum local = 5.92037e-12, global = 5.90999e-12, cumulative = -1.44638e-07
DILUPBiCGStab:  Solving for epsilon, Initial residual = 9.87576e-07, Final residual = 9.87576e-07, No Iterations 0
DILUPBiCGStab:  Solving for k, Initial residual = 1.68404e-06, Final residual = 2.49099e-11, No Iterations 1
ExecutionTime = 0.03 s  ClockTime = 0 s

Courant Number mean: 0.00571348 max: 0.0279395
Time = 710.07

diagonal:  Solving for rho, Initial residual = 0, Final residual = 0, No Iterations 0
DILUPBiCGStab:  Solving for Ux, Initial residual = 2.64514e-05, Final residual = 2.06534e-10, No Iterations 1
DILUPBiCGStab:  Solving for Uy, Initial residual = 1.23949e-05, Final residual = 1.13088e-10, No Iterations 1
DILUPBiCGStab:  Solving for h, Initial residual = 8.40677e-06, Final residual = 1.01498e-10, No Iterations 1
DICPCG:  Solving for p_rgh, Initial residual = 0.000546317, Final residual = 3.77704e-06, No Iterations 21
diagonal:  Solving for rho, Initial residual = 0, Final residual = 0, No Iterations 0
time step continuity errors : sum local = 2.25608e-10, global = 4.92309e-13, cumulative = -1.44637e-07
DICPCG:  Solving for p_rgh, Initial residual = 4.62386e-06, Final residual = 6.36234e-09, No Iterations 26
diagonal:  Solving for rho, Initial residual = 0, Final residual = 0, No Iterations 0
time step continuity errors : sum local = 3.22229e-12, global = 3.19573e-12, cumulative = -1.44634e-07
DILUPBiCGStab:  Solving for epsilon, Initial residual = 9.85187e-07, Final residual = 9.85187e-07, No Iterations 0
DILUPBiCGStab:  Solving for k, Initial residual = 1.68333e-06, Final residual = 2.50762e-11, No Iterations 1
ExecutionTime = 0.03 s  ClockTime = 0 s

Courant Number mean: 0.00571354 max: 0.0279409
Time = 710.08

diagonal:  Solving for rho, Initial residual = 0, Final residual = 0, No Iterations 0
DILUPBiCGStab:  Solving for Ux, Initial residual = 3.19341e-05, Final residual = 2.46837e-10, No Iterations 1
DILUPBiCGStab:  Solving for Uy, Initial residual = 1.48913e-05, Final residual = 1.39904e-10, No Iterations 1
DILUPBiCGStab:  Solving for h, Initial residual = 9.22345e-06, Final residual = 1.03542e-10, No Iterations 1
DICPCG:  Solving for p_rgh, Initial residual = 0.000149051, Final residual = 9.88187e-07, No Iterations 23
diagonal:  Solving for rho, Initial residual = 0, Final residual = 0, No Iterations 0
time step continuity errors : sum local = 5.90971e-11, global = 9.01168e-13, cumulative = -1.44633e-07
DICPCG:  Solving for p_rgh, Initial residual = 1.40023e-06, Final residual = 7.94668e-09, No Iterations 17
diagonal:  Solving for rho, Initial residual = 0, Final residual = 0, No Iterations 0
time step continuity errors : sum local = 7.19789e-13, global = 4.67559e-13, cumulative = -1.44633e-07
DILUPBiCGStab:  Solving for epsilon, Initial residual = 1.0226e-06, Final residual = 1.48602e-11, No Iterations 1
DILUPBiCGStab:  Solving for k, Initial residual = 1.72221e-06, Final residual = 2.55207e-11, No Iterations 1
ExecutionTime = 0.03 s  ClockTime = 0 s

Courant Number mean: 0.00571358 max: 0.0279423
Time = 710.09

diagonal:  Solving for rho, Initial residual = 0, Final residual = 0, No Iterations 0
DILUPBiCGStab:  Solving for Ux, Initial residual = 3.34306e-05, Final residual = 2.48754e-10, No Iterations 1
DILUPBiCGStab:  Solving for Uy, Initial residual = 1.52265e-05, Final residual = 1.40793e-10, No Iterations 1
DILUPBiCGStab:  Solving for h, Initial residual = 1.2894e-05, Final residual = 1.20596e-10, No Iterations 1
DICPCG:  Solving for p_rgh, Initial residual = 0.000334338, Final residual = 2.65668e-06, No Iterations 16
diagonal:  Solving for rho, Initial residual = 0, Final residual = 0, No Iterations 0
time step continuity errors : sum local = 1.58823e-10, global = 3.43211e-12, cumulative = -1.44629e-07
DICPCG:  Solving for p_rgh, Initial residual = 3.70997e-06, Final residual = 9.78146e-09, No Iterations 25
diagonal:  Solving for rho, Initial residual = 0, Final residual = 0, No Iterations 0
time step continuity errors : sum local = 2.1883e-12, global = -2.04532e-12, cumulative = -1.44631e-07
DILUPBiCGStab:  Solving for epsilon, Initial residual = 1.06023e-06, Final residual = 1.52264e-11, No Iterations 1
DILUPBiCGStab:  Solving for k, Initial residual = 1.76552e-06, Final residual = 2.59766e-11, No Iterations 1
ExecutionTime = 0.03 s  ClockTime = 0 s

Courant Number mean: 0.00571363 max: 0.0279435
Time = 710.1

diagonal:  Solving for rho, Initial residual = 0, Final residual = 0, No Iterations 0
DILUPBiCGStab:  Solving for Ux, Initial residual = 2.91606e-05, Final residual = 2.13088e-10, No Iterations 1
DILUPBiCGStab:  Solving for Uy, Initial residual = 1.2988e-05, Final residual = 1.18555e-10, No Iterations 1
DILUPBiCGStab:  Solving for h, Initial residual = 1.74052e-05, Final residual = 1.44015e-10, No Iterations 1
DICPCG:  Solving for p_rgh, Initial residual = 0.000552302, Final residual = 3.91991e-06, No Iterations 20
diagonal:  Solving for rho, Initial residual = 0, Final residual = 0, No Iterations 0
time step continuity errors : sum local = 2.34132e-10, global = 8.21116e-13, cumulative = -1.44631e-07
DICPCG:  Solving for p_rgh, Initial residual = 5.4746e-06, Final residual = 9.54252e-09, No Iterations 26
diagonal:  Solving for rho, Initial residual = 0, Final residual = 0, No Iterations 0
time step continuity errors : sum local = 3.96848e-12, global = -3.91977e-12, cumulative = -1.44634e-07
DILUPBiCGStab:  Solving for epsilon, Initial residual = 1.08555e-06, Final residual = 1.54104e-11, No Iterations 1
DILUPBiCGStab:  Solving for k, Initial residual = 1.79516e-06, Final residual = 2.62447e-11, No Iterations 1
ExecutionTime = 0.04 s  ClockTime = 0 s

Courant Number mean: 0.00571365 max: 0.0279442
Time = 710.11

diagonal:  Solving for rho, Initial residual = 0, Final residual = 0, No Iterations 0
DILUPBiCGStab:  Solving for Ux, Initial residual = 1.99736e-05, Final residual = 1.45799e-10, No Iterations 1
DILUPBiCGStab:  Solving for Uy, Initial residual = 9.25891e-06, Final residual = 8.38649e-11, No Iterations 1
DILUPBiCGStab:  Solving for h, Initial residual = 2.10949e-05, Final residual = 1.64558e-10, No Iterations 1
DICPCG:  Solving for p_rgh, Initial residual = 0.000713034, Final residual = 5.47055e-06, No Iterations 20
diagonal:  Solving for rho, Initial residual = 0, Final residual = 0, No Iterations 0
time step continuity errors : sum local = 3.26015e-10, global = -1.67714e-12, cumulative = -1.44636e-07
DICPCG:  Solving for p_rgh, Initial residual = 7.1604e-06, Final residual = 4.56355e-09, No Iterations 26
diagonal:  Solving for rho, Initial residual = 0, Final residual = 0, No Iterations 0
time step continuity errors : sum local = 4.97148e-12, global = -4.95655e-12, cumulative = -1.44641e-07
DILUPBiCGStab:  Solving for epsilon, Initial residual = 1.09601e-06, Final residual = 1.54767e-11, No Iterations 1
DILUPBiCGStab:  Solving for k, Initial residual = 1.80801e-06, Final residual = 2.6339e-11, No Iterations 1
ExecutionTime = 0.04 s  ClockTime = 0 s

Courant Number mean: 0.00571367 max: 0.0279446
Time = 710.12

diagonal:  Solving for rho, Initial residual = 0, Final residual = 0, No Iterations 0
DILUPBiCGStab:  Solving for Ux, Initial residual = 8.48571e-06, Final residual = 6.25393e-11, No Iterations 1
DILUPBiCGStab:  Solving for Uy, Initial residual = 4.77167e-06, Final residual = 4.34251e-11, No Iterations 1
DILUPBiCGStab:  Solving for h, Initial residual = 2.31817e-05, Final residual = 1.76651e-10, No Iterations 1
DICPCG:  Solving for p_rgh, Initial residual = 0.000756166, Final residual = 6.57988e-06, No Iterations 20
diagonal:  Solving for rho, Initial residual = 0, Final residual = 0, No Iterations 0
time step continuity errors : sum local = 3.91102e-10, global = -2.32467e-12, cumulative = -1.44643e-07
DICPCG:  Solving for p_rgh, Initial residual = 7.99465e-06, Final residual = 4.33653e-09, No Iterations 26
diagonal:  Solving for rho, Initial residual = 0, Final residual = 0, No Iterations 0
time step continuity errors : sum local = 5.10515e-12, global = -5.09092e-12, cumulative = -1.44648e-07
DILUPBiCGStab:  Solving for epsilon, Initial residual = 1.09093e-06, Final residual = 1.54309e-11, No Iterations 1
DILUPBiCGStab:  Solving for k, Initial residual = 1.80294e-06, Final residual = 2.6288e-11, No Iterations 1
ExecutionTime = 0.04 s  ClockTime = 0 s

Courant Number mean: 0.00571367 max: 0.0279445
Time = 710.13

diagonal:  Solving for rho, Initial residual = 0, Final residual = 0, No Iterations 0
DILUPBiCGStab:  Solving for Ux, Initial residual = 2.96978e-06, Final residual = 2.5205e-11, No Iterations 1
DILUPBiCGStab:  Solving for Uy, Initial residual = 1.70991e-06, Final residual = 1.49819e-11, No Iterations 1
DILUPBiCGStab:  Solving for h, Initial residual = 2.34316e-05, Final residual = 1.7811e-10, No Iterations 1
DICPCG:  Solving for p_rgh, Initial residual = 0.0006781, Final residual = 5.15388e-06, No Iterations 18
diagonal:  Solving for rho, Initial residual = 0, Final residual = 0, No Iterations 0
time step continuity errors : sum local = 3.05927e-10, global = -1.30156e-11, cumulative = -1.44661e-07
DICPCG:  Solving for p_rgh, Initial residual = 6.25201e-06, Final residual = 7.05433e-09, No Iterations 27
diagonal:  Solving for rho, Initial residual = 0, Final residual = 0, No Iterations 0
time step continuity errors : sum local = 4.44013e-12, global = -4.41955e-12, cumulative = -1.44666e-07
DILUPBiCGStab:  Solving for epsilon, Initial residual = 1.07285e-06, Final residual = 1.52958e-11, No Iterations 1
DILUPBiCGStab:  Solving for k, Initial residual = 1.78306e-06, Final residual = 2.61037e-11, No Iterations 1
ExecutionTime = 0.04 s  ClockTime = 0 s

Courant Number mean: 0.00571366 max: 0.027944
Time = 710.14

diagonal:  Solving for rho, Initial residual = 0, Final residual = 0, No Iterations 0
DILUPBiCGStab:  Solving for Ux, Initial residual = 1.19158e-05, Final residual = 9.02528e-11, No Iterations 1
DILUPBiCGStab:  Solving for Uy, Initial residual = 4.72704e-06, Final residual = 4.65182e-11, No Iterations 1
DILUPBiCGStab:  Solving for h, Initial residual = 2.20004e-05, Final residual = 1.6884e-10, No Iterations 1
DICPCG:  Solving for p_rgh, Initial residual = 0.000503548, Final residual = 5.02435e-06, No Iterations 16
diagonal:  Solving for rho, Initial residual = 0, Final residual = 0, No Iterations 0
time step continuity errors : sum local = 2.97388e-10, global = 1.502e-11, cumulative = -1.44651e-07
DICPCG:  Solving for p_rgh, Initial residual = 5.73042e-06, Final residual = 6.82983e-09, No Iterations 26
diagonal:  Solving for rho, Initial residual = 0, Final residual = 0, No Iterations 0
time step continuity errors : sum local = 3.20125e-12, global = -3.15886e-12, cumulative = -1.44654e-07
DILUPBiCGStab:  Solving for epsilon, Initial residual = 1.04694e-06, Final residual = 1.50677e-11, No Iterations 1
DILUPBiCGStab:  Solving for k, Initial residual = 1.75413e-06, Final residual = 2.58043e-11, No Iterations 1
ExecutionTime = 0.04 s  ClockTime = 0 s

Courant Number mean: 0.00571364 max: 0.0279433
Time = 710.15

diagonal:  Solving for rho, Initial residual = 0, Final residual = 0, No Iterations 0
DILUPBiCGStab:  Solving for Ux, Initial residual = 1.79353e-05, Final residual = 1.35588e-10, No Iterations 1
DILUPBiCGStab:  Solving for Uy, Initial residual = 7.44516e-06, Final residual = 7.15926e-11, No Iterations 1
DILUPBiCGStab:  Solving for h, Initial residual = 1.93324e-05, Final residual = 1.51829e-10, No Iterations 1
DICPCG:  Solving for p_rgh, Initial residual = 0.000271289, Final residual = 2.3644e-06, No Iterations 21
diagonal:  Solving for rho, Initial residual = 0, Final residual = 0, No Iterations 0
time step continuity errors : sum local = 1.39505e-10, global = 3.07086e-12, cumulative = -1.44651e-07
DICPCG:  Solving for p_rgh, Initial residual = 2.63391e-06, Final residual = 6.50587e-09, No Iterations 24
diagonal:  Solving for rho, Initial residual = 0, Final residual = 0, No Iterations 0
time step continuity errors : sum local = 1.61323e-12, global = -1.55574e-12, cumulative = -1.44653e-07
DILUPBiCGStab:  Solving for epsilon, Initial residual = 1.01797e-06, Final residual = 1.47545e-11, No Iterations 1
DILUPBiCGStab:  Solving for k, Initial residual = 1.72138e-06, Final residual = 2.54679e-11, No Iterations 1
ExecutionTime = 0.05 s  ClockTime = 0 s

Courant Number mean: 0.00571362 max: 0.0279425
Time = 710.16

diagonal:  Solving for rho, Initial residual = 0, Final residual = 0, No Iterations 0
DILUPBiCGStab:  Solving for Ux, Initial residual = 2.04872e-05, Final residual = 1.55096e-10, No Iterations 1
DILUPBiCGStab:  Solving for Uy, Initial residual = 8.75547e-06, Final residual = 8.32723e-11, No Iterations 1
DILUPBiCGStab:  Solving for h, Initial residual = 1.60805e-05, Final residual = 1.31974e-10, No Iterations 1
DICPCG:  Solving for p_rgh, Initial residual = 7.41854e-05, Final residual = 7.19814e-07, No Iterations 22
diagonal:  Solving for rho, Initial residual = 0, Final residual = 0, No Iterations 0
time step continuity errors : sum local = 4.26656e-11, global = 2.12029e-12, cumulative = -1.4465e-07
DICPCG:  Solving for p_rgh, Initial residual = 9.45589e-07, Final residual = 9.07148e-09, No Iterations 14
diagonal:  Solving for rho, Initial residual = 0, Final residual = 0, No Iterations 0
time step continuity errors : sum local = 5.80924e-13, global = 9.30187e-14, cumulative = -1.4465e-07
DILUPBiCGStab:  Solving for epsilon, Initial residual = 9.97171e-07, Final residual = 9.97171e-07, No Iterations 0
DILUPBiCGStab:  Solving for k, Initial residual = 1.69917e-06, Final residual = 2.52393e-11, No Iterations 1
ExecutionTime = 0.05 s  ClockTime = 0 s

Courant Number mean: 0.0057136 max: 0.0279417
Time = 710.17

diagonal:  Solving for rho, Initial residual = 0, Final residual = 0, No Iterations 0
DILUPBiCGStab:  Solving for Ux, Initial residual = 1.9615e-05, Final residual = 1.4877e-10, No Iterations 1
DILUPBiCGStab:  Solving for Uy, Initial residual = 8.53855e-06, Final residual = 8.0827e-11, No Iterations 1
DILUPBiCGStab:  Solving for h, Initial residual = 1.29564e-05, Final residual = 1.1415e-10, No Iterations 1
DICPCG:  Solving for p_rgh, Initial residual = 0.000236947, Final residual = 1.91157e-06, No Iterations 18
diagonal:  Solving for rho, Initial residual = 0, Final residual = 0, No Iterations 0
time step continuity errors : sum local = 1.13116e-10, global = 3.41284e-12, cumulative = -1.44647e-07
DICPCG:  Solving for p_rgh, Initial residual = 2.60407e-06, Final residual = 8.7587e-09, No Iterations 25
diagonal:  Solving for rho, Initial residual = 0, Final residual = 0, No Iterations 0
time step continuity errors : sum local = 1.66875e-12, global = 1.51572e-12, cumulative = -1.44645e-07
DILUPBiCGStab:  Solving for epsilon, Initial residual = 9.96812e-07, Final residual = 9.96812e-07, No Iterations 0
DILUPBiCGStab:  Solving for k, Initial residual = 1.68807e-06, Final residual = 2.51336e-11, No Iterations 1
ExecutionTime = 0.05 s  ClockTime = 0 s

Courant Number mean: 0.00571358 max: 0.0279411
Time = 710.18

diagonal:  Solving for rho, Initial residual = 0, Final residual = 0, No Iterations 0
DILUPBiCGStab:  Solving for Ux, Initial residual = 1.58286e-05, Final residual = 1.20557e-10, No Iterations 1
DILUPBiCGStab:  Solving for Uy, Initial residual = 7.02394e-06, Final residual = 6.6427e-11, No Iterations 1
DILUPBiCGStab:  Solving for h, Initial residual = 1.05166e-05, Final residual = 1.01044e-10, No Iterations 1
DICPCG:  Solving for p_rgh, Initial residual = 0.000361367, Final residual = 2.36361e-06, No Iterations 20
diagonal:  Solving for rho, Initial residual = 0, Final residual = 0, No Iterations 0
time step continuity errors : sum local = 1.39577e-10, global = 3.08497e-12, cumulative = -1.44642e-07
DICPCG:  Solving for p_rgh, Initial residual = 3.39043e-06, Final residual = 4.84608e-09, No Iterations 25
diagonal:  Solving for rho, Initial residual = 0, Final residual = 0, No Iterations 0
time step continuity errors : sum local = 2.56762e-12, global = 2.54578e-12, cumulative = -1.4464e-07
DILUPBiCGStab:  Solving for epsilon, Initial residual = 1.00377e-06, Final residual = 1.46154e-11, No Iterations 1
DILUPBiCGStab:  Solving for k, Initial residual = 1.68729e-06, Final residual = 2.50819e-11, No Iterations 1
ExecutionTime = 0.05 s  ClockTime = 0 s

Courant Number mean: 0.00571357 max: 0.0279407
Time = 710.19

diagonal:  Solving for rho, Initial residual = 0, Final residual = 0, No Iterations 0
DILUPBiCGStab:  Solving for Ux, Initial residual = 1.00442e-05, Final residual = 7.74508e-11, No Iterations 1
DILUPBiCGStab:  Solving for Uy, Initial residual = 4.62834e-06, Final residual = 4.39607e-11, No Iterations 1
DILUPBiCGStab:  Solving for h, Initial residual = 9.03951e-06, Final residual = 9.31882e-11, No Iterations 1
DICPCG:  Solving for p_rgh, Initial residual = 0.000442786, Final residual = 3.42741e-06, No Iterations 20
diagonal:  Solving for rho, Initial residual = 0, Final residual = 0, No Iterations 0
time step continuity errors : sum local = 2.02978e-10, global = 4.00604e-12, cumulative = -1.44636e-07
DICPCG:  Solving for p_rgh, Initial residual = 4.41059e-06, Final residual = 7.6201e-09, No Iterations 25
diagonal:  Solving for rho, Initial residual = 0, Final residual = 0, No Iterations 0
time step continuity errors : sum local = 3.06954e-12, global = 3.02982e-12, cumulative = -1.44633e-07
DILUPBiCGStab:  Solving for epsilon, Initial residual = 1.00279e-06, Final residual = 1.45846e-11, No Iterations 1
DILUPBiCGStab:  Solving for k, Initial residual = 1.68629e-06, Final residual = 2.50492e-11, No Iterations 1
ExecutionTime = 0.06 s  ClockTime = 0 s

Courant Number mean: 0.00571357 max: 0.0279406
Time = 710.2

diagonal:  Solving for rho, Initial residual = 0, Final residual = 0, No Iterations 0
DILUPBiCGStab:  Solving for Ux, Initial residual = 3.42236e-06, Final residual = 2.86215e-11, No Iterations 1
DILUPBiCGStab:  Solving for Uy, Initial residual = 2.03567e-06, Final residual = 1.80305e-11, No Iterations 1
DILUPBiCGStab:  Solving for h, Initial residual = 8.36804e-06, Final residual = 8.9621e-11, No Iterations 1
DICPCG:  Solving for p_rgh, Initial residual = 0.000448969, Final residual = 3.90928e-06, No Iterations 20
diagonal:  Solving for rho, Initial residual = 0, Final residual = 0, No Iterations 0
time step continuity errors : sum local = 2.31961e-10, global = 4.353e-12, cumulative = -1.44628e-07
DICPCG:  Solving for p_rgh, Initial residual = 4.69659e-06, Final residual = 6.92835e-09, No Iterations 25
diagonal:  Solving for rho, Initial residual = 0, Final residual = 0, No Iterations 0
time step continuity errors : sum local = 3.02017e-12, global = 2.98736e-12, cumulative = -1.44625e-07
DILUPBiCGStab:  Solving for epsilon, Initial residual = 1.00219e-06, Final residual = 1.45744e-11, No Iterations 1
DILUPBiCGStab:  Solving for k, Initial residual = 1.68529e-06, Final residual = 2.5044e-11, No Iterations 1
ExecutionTime = 0.06 s  ClockTime = 0 s

Courant Number mean: 0.00571358 max: 0.0279407
Time = 710.21

diagonal:  Solving for rho, Initial residual = 0, Final residual = 0, No Iterations 0
DILUPBiCGStab:  Solving for Ux, Initial residual = 3.18537e-06, Final residual = 2.13358e-11, No Iterations 1
DILUPBiCGStab:  Solving for Uy, Initial residual = 2.1374e-06, Final residual = 1.96957e-11, No Iterations 1
DILUPBiCGStab:  Solving for h, Initial residual = 8.35222e-06, Final residual = 8.87511e-11, No Iterations 1
DICPCG:  Solving for p_rgh, Initial residual = 0.000384769, Final residual = 3.61783e-06, No Iterations 17
diagonal:  Solving for rho, Initial residual = 0, Final residual = 0, No Iterations 0
time step continuity errors : sum local = 2.14814e-10, global = 1.06994e-11, cumulative = -1.44615e-07
DICPCG:  Solving for p_rgh, Initial residual = 4.31985e-06, Final residual = 6.91866e-09, No Iterations 26
diagonal:  Solving for rho, Initial residual = 0, Final residual = 0, No Iterations 0
time step continuity errors : sum local = 2.50929e-12, global = 2.49361e-12, cumulative = -1.44612e-07
DILUPBiCGStab:  Solving for epsilon, Initial residual = 1.00195e-06, Final residual = 1.45748e-11, No Iterations 1
DILUPBiCGStab:  Solving for k, Initial residual = 1.68639e-06, Final residual = 2.50846e-11, No Iterations 1
ExecutionTime = 0.06 s  ClockTime = 0 s

Courant Number mean: 0.0057136 max: 0.0279411
Time = 710.22

diagonal:  Solving for rho, Initial residual = 0, Final residual = 0, No Iterations 0
DILUPBiCGStab:  Solving for Ux, Initial residual = 8.23167e-06, Final residual = 5.90292e-11, No Iterations 1
DILUPBiCGStab:  Solving for Uy, Initial residual = 3.9261e-06, Final residual = 3.64578e-11, No Iterations 1
DILUPBiCGStab:  Solving for h, Initial residual = 8.92935e-06, Final residual = 9.03016e-11, No Iterations 1
DICPCG:  Solving for p_rgh, Initial residual = 0.000269054, Final residual = 2.27434e-06, No Iterations 16
diagonal:  Solving for rho, Initial residual = 0, Final residual = 0, No Iterations 0
time step continuity errors : sum local = 1.35303e-10, global = -3.95487e-12, cumulative = -1.44616e-07
DICPCG:  Solving for p_rgh, Initial residual = 2.65441e-06, Final residual = 8.97796e-09, No Iterations 24
diagonal:  Solving for rho, Initial residual = 0, Final residual = 0, No Iterations 0
time step continuity errors : sum local = 1.79362e-12, global = 1.66241e-12, cumulative = -1.44614e-07
DILUPBiCGStab:  Solving for epsilon, Initial residual = 1.00729e-06, Final residual = 1.46046e-11, No Iterations 1
DILUPBiCGStab:  Solving for k, Initial residual = 1.69613e-06, Final residual = 2.51877e-11, No Iterations 1
ExecutionTime = 0.06 s  ClockTime = 0 s

Courant Number mean: 0.00571361 max: 0.0279415
Time = 710.23

diagonal:  Solving for rho, Initial residual = 0, Final residual = 0, No Iterations 0
DILUPBiCGStab:  Solving for Ux, Initial residual = 1.14299e-05, Final residual = 8.30724e-11, No Iterations 1
DILUPBiCGStab:  Solving for Uy, Initial residual = 5.352e-06, Final residual = 4.9503e-11, No Iterations 1
DILUPBiCGStab:  Solving for h, Initial residual = 1.00541e-05, Final residual = 9.49108e-11, No Iterations 1
DICPCG:  Solving for p_rgh, Initial residual = 0.000126704, Final residual = 1.19234e-06, No Iterations 21
diagonal:  Solving for rho, Initial residual = 0, Final residual = 0, No Iterations 0
time step continuity errors : sum local = 7.13439e-11, global = 8.5969e-13, cumulative = -1.44614e-07
DICPCG:  Solving for p_rgh, Initial residual = 1.32858e-06, Final residual = 5.51434e-09, No Iterations 23
diagonal:  Solving for rho, Initial residual = 0, Final residual = 0, No Iterations 0
time step continuity errors : sum local = 7.86122e-13, global = 6.85102e-13, cumulative = -1.44613e-07
DILUPBiCGStab:  Solving for epsilon, Initial residual = 1.0166e-06, Final residual = 1.47013e-11, No Iterations 1
DILUPBiCGStab:  Solving for k, Initial residual = 1.70884e-06, Final residual = 2.53394e-11, No Iterations 1
ExecutionTime = 0.07 s  ClockTime = 0 s

Courant Number mean: 0.00571363 max: 0.0279421
Time = 710.24

diagonal:  Solving for rho, Initial residual = 0, Final residual = 0, No Iterations 0
DILUPBiCGStab:  Solving for Ux, Initial residual = 1.2482e-05, Final residual = 9.11481e-11, No Iterations 1
DILUPBiCGStab:  Solving for Uy, Initial residual = 5.89586e-06, Final residual = 5.43465e-11, No Iterations 1
DILUPBiCGStab:  Solving for h, Initial residual = 1.1643e-05, Final residual = 1.02121e-10, No Iterations 1
DICPCG:  Solving for p_rgh, Initial residual = 6.64632e-05, Final residual = 4.16832e-07, No Iterations 22
diagonal:  Solving for rho, Initial residual = 0, Final residual = 0, No Iterations 0
time step continuity errors : sum local = 2.48324e-11, global = 1.49202e-12, cumulative = -1.44611e-07
DICPCG:  Solving for p_rgh, Initial residual = 6.28398e-07, Final residual = 7.30068e-09, No Iterations 21
diagonal:  Solving for rho, Initial residual = 0, Final residual = 0, No Iterations 0
time step continuity errors : sum local = 5.65244e-13, global = -2.91892e-13, cumulative = -1.44612e-07
DILUPBiCGStab:  Solving for epsilon, Initial residual = 1.02802e-06, Final residual = 1.48165e-11, No Iterations 1
DILUPBiCGStab:  Solving for k, Initial residual = 1.72203e-06, Final residual = 2.54731e-11, No Iterations 1
ExecutionTime = 0.07 s  ClockTime = 0 s

Courant Number mean: 0.00571365 max: 0.0279425
Time = 710.25

diagonal:  Solving for rho, Initial residual = 0, Final residual = 0, No Iterations 0
DILUPBiCGStab:  Solving for Ux, Initial residual = 1.14891e-05, Final residual = 8.39542e-11, No Iterations 1
DILUPBiCGStab:  Solving for Uy, Initial residual = 5.57718e-06, Final residual = 5.11957e-11, No Iterations 1
DILUPBiCGStab:  Solving for h, Initial residual = 1.33902e-05, Final residual = 1.10726e-10, No Iterations 1
DICPCG:  Solving for p_rgh, Initial residual = 0.000160449, Final residual = 1.09202e-06, No Iterations 20
diagonal:  Solving for rho, Initial residual = 0, Final residual = 0, No Iterations 0
time step continuity errors : sum local = 6.50432e-11, global = 1.7241e-12, cumulative = -1.4461e-07
DICPCG:  Solving for p_rgh, Initial residual = 1.5357e-06, Final residual = 7.9026e-09, No Iterations 23
diagonal:  Solving for rho, Initial residual = 0, Final residual = 0, No Iterations 0
time step continuity errors : sum local = 1.19309e-12, global = -1.08064e-12, cumulative = -1.44611e-07
DILUPBiCGStab:  Solving for epsilon, Initial residual = 1.03923e-06, Final residual = 1.49337e-11, No Iterations 1
DILUPBiCGStab:  Solving for k, Initial residual = 1.73509e-06, Final residual = 2.5589e-11, No Iterations 1
ExecutionTime = 0.07 s  ClockTime = 0 s

Courant Number mean: 0.00571367 max: 0.0279429
Time = 710.26

diagonal:  Solving for rho, Initial residual = 0, Final residual = 0, No Iterations 0
DILUPBiCGStab:  Solving for Ux, Initial residual = 8.85953e-06, Final residual = 6.45116e-11, No Iterations 1
DILUPBiCGStab:  Solving for Uy, Initial residual = 4.55701e-06, Final residual = 4.16585e-11, No Iterations 1
DILUPBiCGStab:  Solving for h, Initial residual = 1.49311e-05, Final residual = 1.1941e-10, No Iterations 1
DICPCG:  Solving for p_rgh, Initial residual = 0.000228995, Final residual = 1.61659e-06, No Iterations 20
diagonal:  Solving for rho, Initial residual = 0, Final residual = 0, No Iterations 0
time step continuity errors : sum local = 9.61144e-11, global = 5.01448e-13, cumulative = -1.44611e-07
DICPCG:  Solving for p_rgh, Initial residual = 2.21679e-06, Final residual = 7.55991e-09, No Iterations 24
diagonal:  Solving for rho, Initial residual = 0, Final residual = 0, No Iterations 0
time step continuity errors : sum local = 1.67371e-12, global = -1.61056e-12, cumulative = -1.44612e-07
DILUPBiCGStab:  Solving for epsilon, Initial residual = 1.04533e-06, Final residual = 1.49897e-11, No Iterations 1
DILUPBiCGStab:  Solving for k, Initial residual = 1.74242e-06, Final residual = 2.56593e-11, No Iterations 1
ExecutionTime = 0.07 s  ClockTime = 0 s

Courant Number mean: 0.00571368 max: 0.0279431
Time = 710.27

diagonal:  Solving for rho, Initial residual = 0, Final residual = 0, No Iterations 0
DILUPBiCGStab:  Solving for Ux, Initial residual = 5.21285e-06, Final residual = 3.74667e-11, No Iterations 1
DILUPBiCGStab:  Solving for Uy, Initial residual = 3.11926e-06, Final residual = 2.84389e-11, No Iterations 1
DILUPBiCGStab:  Solving for h, Initial residual = 1.59785e-05, Final residual = 1.25459e-10, No Iterations 1
DICPCG:  Solving for p_rgh, Initial residual = 0.000268861, Final residual = 2.18046e-06, No Iterations 20
diagonal:  Solving for rho, Initial residual = 0, Final residual = 0, No Iterations 0
time step continuity errors : sum local = 1.29467e-10, global = 1.40454e-13, cumulative = -1.44612e-07
DICPCG:  Solving for p_rgh, Initial residual = 2.75657e-06, Final residual = 9.6246e-09, No Iterations 24
diagonal:  Solving for rho, Initial residual = 0, Final residual = 0, No Iterations 0
time step continuity errors : sum local = 1.94151e-12, global = -1.82642e-12, cumulative = -1.44614e-07
DILUPBiCGStab:  Solving for epsilon, Initial residual = 1.04593e-06, Final residual = 1.4988e-11, No Iterations 1
DILUPBiCGStab:  Solving for k, Initial residual = 1.74352e-06, Final residual = 2.56668e-11, No Iterations 1
ExecutionTime = 0.07 s  ClockTime = 0 s

Courant Number mean: 0.00571369 max: 0.0279432
Time = 710.28

diagonal:  Solving for rho, Initial residual = 0, Final residual = 0, No Iterations 0
DILUPBiCGStab:  Solving for Ux, Initial residual = 1.5567e-06, Final residual = 1.21764e-11, No Iterations 1
DILUPBiCGStab:  Solving for Uy, Initial residual = 1.61347e-06, Final residual = 1.48241e-11, No Iterations 1
DILUPBiCGStab:  Solving for h, Initial residual = 1.63985e-05, Final residual = 1.27795e-10, No Iterations 1
DICPCG:  Solving for p_rgh, Initial residual = 0.000262477, Final residual = 2.32401e-06, No Iterations 20
diagonal:  Solving for rho, Initial residual = 0, Final residual = 0, No Iterations 0
time step continuity errors : sum local = 1.37833e-10, global = -4.40956e-14, cumulative = -1.44614e-07
DICPCG:  Solving for p_rgh, Initial residual = 2.78145e-06, Final residual = 5.77285e-09, No Iterations 24
diagonal:  Solving for rho, Initial residual = 0, Final residual = 0, No Iterations 0
time step continuity errors : sum local = 1.78014e-12, global = -1.73252e-12, cumulative = -1.44616e-07
DILUPBiCGStab:  Solving for epsilon, Initial residual = 1.04152e-06, Final residual = 1.49348e-11, No Iterations 1
DILUPBiCGStab:  Solving for k, Initial residual = 1.7389e-06, Final residual = 2.56182e-11, No Iterations 1
ExecutionTime = 0.08 s  ClockTime = 0 s

Courant Number mean: 0.00571369 max: 0.0279431
Time = 710.29

diagonal:  Solving for rho, Initial residual = 0, Final residual = 0, No Iterations 0
DILUPBiCGStab:  Solving for Ux, Initial residual = 2.65992e-06, Final residual = 2.36144e-11, No Iterations 1
DILUPBiCGStab:  Solving for Uy, Initial residual = 1.37577e-06, Final residual = 1.36728e-11, No Iterations 1
DILUPBiCGStab:  Solving for h, Initial residual = 1.61834e-05, Final residual = 1.26222e-10, No Iterations 1
DICPCG:  Solving for p_rgh, Initial residual = 0.000216119, Final residual = 1.85088e-06, No Iterations 16
diagonal:  Solving for rho, Initial residual = 0, Final residual = 0, No Iterations 0
time step continuity errors : sum local = 1.10032e-10, global = -2.27457e-12, cumulative = -1.44618e-07
DICPCG:  Solving for p_rgh, Initial residual = 2.20618e-06, Final residual = 9.99152e-09, No Iterations 24
diagonal:  Solving for rho, Initial residual = 0, Final residual = 0, No Iterations 0
time step continuity errors : sum local = 1.5482e-12, global = -1.37191e-12, cumulative = -1.44619e-07
DILUPBiCGStab:  Solving for epsilon, Initial residual = 1.03334e-06, Final residual = 1.48395e-11, No Iterations 1
DILUPBiCGStab:  Solving for k, Initial residual = 1.72992e-06, Final residual = 2.5523e-11, No Iterations 1
ExecutionTime = 0.08 s  ClockTime = 0 s

Courant Number mean: 0.00571369 max: 0.0279429
Time = 710.3

diagonal:  Solving for rho, Initial residual = 0, Final residual = 0, No Iterations 0
DILUPBiCGStab:  Solving for Ux, Initial residual = 5.41513e-06, Final residual = 4.31009e-11, No Iterations 1
DILUPBiCGStab:  Solving for Uy, Initial residual = 2.30728e-06, Final residual = 2.32465e-11, No Iterations 1
DILUPBiCGStab:  Solving for h, Initial residual = 1.54444e-05, Final residual = 1.21367e-10, No Iterations 1
DICPCG:  Solving for p_rgh, Initial residual = 0.000141864, Final residual = 1.17919e-06, No Iterations 18
diagonal:  Solving for rho, Initial residual = 0, Final residual = 0, No Iterations 0
time step continuity errors : sum local = 6.98855e-11, global = 4.47179e-12, cumulative = -1.44615e-07
DICPCG:  Solving for p_rgh, Initial residual = 1.36885e-06, Final residual = 7.07252e-09, No Iterations 24
diagonal:  Solving for rho, Initial residual = 0, Final residual = 0, No Iterations 0
time step continuity errors : sum local = 9.6105e-13, global = -8.56822e-13, cumulative = -1.44616e-07
DILUPBiCGStab:  Solving for epsilon, Initial residual = 1.02304e-06, Final residual = 1.47166e-11, No Iterations 1
DILUPBiCGStab:  Solving for k, Initial residual = 1.71843e-06, Final residual = 2.54161e-11, No Iterations 1
ExecutionTime = 0.08 s  ClockTime = 0 s

Courant Number mean: 0.00571368 max: 0.0279426
Time = 710.31

diagonal:  Solving for rho, Initial residual = 0, Final residual = 0, No Iterations 0
DILUPBiCGStab:  Solving for Ux, Initial residual = 7.03233e-06, Final residual = 5.49616e-11, No Iterations 1
DILUPBiCGStab:  Solving for Uy, Initial residual = 3.00621e-06, Final residual = 2.98583e-11, No Iterations 1
DILUPBiCGStab:  Solving for h, Initial residual = 1.43709e-05, Final residual = 1.14409e-10, No Iterations 1
DICPCG:  Solving for p_rgh, Initial residual = 5.66482e-05, Final residual = 3.71816e-07, No Iterations 22
diagonal:  Solving for rho, Initial residual = 0, Final residual = 0, No Iterations 0
time step continuity errors : sum local = 2.20389e-11, global = 1.87356e-12, cumulative = -1.44614e-07
DICPCG:  Solving for p_rgh, Initial residual = 4.56529e-07, Final residual = 7.1636e-09, No Iterations 18
diagonal:  Solving for rho, Initial residual = 0, Final residual = 0, No Iterations 0
time step continuity errors : sum local = 5.2875e-13, global = -2.77973e-13, cumulative = -1.44614e-07
DILUPBiCGStab:  Solving for epsilon, Initial residual = 1.01376e-06, Final residual = 1.4629e-11, No Iterations 1
DILUPBiCGStab:  Solving for k, Initial residual = 1.70898e-06, Final residual = 2.53146e-11, No Iterations 1
ExecutionTime = 0.08 s  ClockTime = 0 s

Courant Number mean: 0.00571368 max: 0.0279423
Time = 710.32

diagonal:  Solving for rho, Initial residual = 0, Final residual = 0, No Iterations 0
DILUPBiCGStab:  Solving for Ux, Initial residual = 7.36397e-06, Final residual = 5.7478e-11, No Iterations 1
DILUPBiCGStab:  Solving for Uy, Initial residual = 3.2048e-06, Final residual = 3.15352e-11, No Iterations 1
DILUPBiCGStab:  Solving for h, Initial residual = 1.31757e-05, Final residual = 1.07054e-10, No Iterations 1
DICPCG:  Solving for p_rgh, Initial residual = 5.50987e-05, Final residual = 4.34237e-07, No Iterations 21
diagonal:  Solving for rho, Initial residual = 0, Final residual = 0, No Iterations 0
time step continuity errors : sum local = 2.59865e-11, global = 1.53739e-12, cumulative = -1.44613e-07
DICPCG:  Solving for p_rgh, Initial residual = 5.95688e-07, Final residual = 9.1346e-09, No Iterations 20
diagonal:  Solving for rho, Initial residual = 0, Final residual = 0, No Iterations 0
time step continuity errors : sum local = 6.46379e-13, global = 2.59918e-13, cumulative = -1.44612e-07
DILUPBiCGStab:  Solving for epsilon, Initial residual = 1.00807e-06, Final residual = 1.45625e-11, No Iterations 1
DILUPBiCGStab:  Solving for k, Initial residual = 1.70104e-06, Final residual = 2.52185e-11, No Iterations 1
ExecutionTime = 0.09 s  ClockTime = 0 s

Courant Number mean: 0.00571367 max: 0.0279421
Time = 710.33

diagonal:  Solving for rho, Initial residual = 0, Final residual = 0, No Iterations 0
DILUPBiCGStab:  Solving for Ux, Initial residual = 6.51812e-06, Final residual = 5.13178e-11, No Iterations 1
DILUPBiCGStab:  Solving for Uy, Initial residual = 2.91872e-06, Final residual = 2.85356e-11, No Iterations 1
DILUPBiCGStab:  Solving for h, Initial residual = 1.20763e-05, Final residual = 1.00489e-10, No Iterations 1
DICPCG:  Solving for p_rgh, Initial residual = 0.000106855, Final residual = 7.48612e-07, No Iterations 20
diagonal:  Solving for rho, Initial residual = 0, Final residual = 0, No Iterations 0
time step continuity errors : sum local = 4.41035e-11, global = 1.52436e-12, cumulative = -1.44611e-07
DICPCG:  Solving for p_rgh, Initial residual = 1.04772e-06, Final residual = 5.03182e-09, No Iterations 23
diagonal:  Solving for rho, Initial residual = 0, Final residual = 0, No Iterations 0
time step continuity errors : sum local = 8.15044e-13, global = 7.4052e-13, cumulative = -1.4461e-07
DILUPBiCGStab:  Solving for epsilon, Initial residual = 1.00387e-06, Final residual = 1.45067e-11, No Iterations 1
DILUPBiCGStab:  Solving for k, Initial residual = 1.6955e-06, Final residual = 2.51415e-11, No Iterations 1
ExecutionTime = 0.09 s  ClockTime = 0 s

Courant Number mean: 0.00571367 max: 0.0279419
Time = 710.34

diagonal:  Solving for rho, Initial residual = 0, Final residual = 0, No Iterations 0
DILUPBiCGStab:  Solving for Ux, Initial residual = 4.77338e-06, Final residual = 3.85954e-11, No Iterations 1
DILUPBiCGStab:  Solving for Uy, Initial residual = 2.27945e-06, Final residual = 2.19691e-11, No Iterations 1
DILUPBiCGStab:  Solving for h, Initial residual = 1.12127e-05, Final residual = 9.53236e-11, No Iterations 1
DICPCG:  Solving for p_rgh, Initial residual = 0.000145494, Final residual = 1.06299e-06, No Iterations 20
diagonal:  Solving for rho, Initial residual = 0, Final residual = 0, No Iterations 0
time step continuity errors : sum local = 6.2892e-11, global = 2.41445e-12, cumulative = -1.44608e-07
DICPCG:  Solving for p_rgh, Initial residual = 1.42983e-06, Final residual = 4.99856e-09, No Iterations 24
diagonal:  Solving for rho, Initial residual = 0, Final residual = 0, No Iterations 0
time step continuity errors : sum local = 1.0731e-12, global = 1.01425e-12, cumulative = -1.44607e-07
DILUPBiCGStab:  Solving for epsilon, Initial residual = 1.00167e-06, Final residual = 1.44701e-11, No Iterations 1
DILUPBiCGStab:  Solving for k, Initial residual = 1.69239e-06, Final residual = 2.5102e-11, No Iterations 1
ExecutionTime = 0.09 s  ClockTime = 0 s

Courant Number mean: 0.00571367 max: 0.0279418
Time = 710.35

diagonal:  Solving for rho, Initial residual = 0, Final residual = 0, No Iterations 0
DILUPBiCGStab:  Solving for Ux, Initial residual = 2.55096e-06, Final residual = 2.25225e-11, No Iterations 1
DILUPBiCGStab:  Solving for Uy, Initial residual = 1.53439e-06, Final residual = 1.4296e-11, No Iterations 1
DILUPBiCGStab:  Solving for h, Initial residual = 1.068e-05, Final residual = 9.20302e-11, No Iterations 1
DICPCG:  Solving for p_rgh, Initial residual = 0.000162575, Final residual = 1.33775e-06, No Iterations 20
diagonal:  Solving for rho, Initial residual = 0, Final residual = 0, No Iterations 0
time step continuity errors : sum local = 7.94321e-11, global = 2.58591e-12, cumulative = -1.44604e-07
DICPCG:  Solving for p_rgh, Initial residual = 1.65766e-06, Final residual = 5.73857e-09, No Iterations 24
diagonal:  Solving for rho, Initial residual = 0, Final residual = 0, No Iterations 0
time step continuity errors : sum local = 1.16655e-12, global = 1.09647e-12, cumulative = -1.44603e-07
DILUPBiCGStab:  Solving for epsilon, Initial residual = 1.00123e-06, Final residual = 1.4456e-11, No Iterations 1
DILUPBiCGStab:  Solving for k, Initial residual = 1.69183e-06, Final residual = 2.50912e-11, No Iterations 1
ExecutionTime = 0.09 s  ClockTime = 0 s

Courant Number mean: 0.00571367 max: 0.0279418
Time = 710.36

diagonal:  Solving for rho, Initial residual = 0, Final residual = 0, No Iterations 0
DILUPBiCGStab:  Solving for Ux, Initial residual = 1.11571e-06, Final residual = 1.09872e-11, No Iterations 1
DILUPBiCGStab:  Solving for Uy, Initial residual = 1.15962e-06, Final residual = 1.06443e-11, No Iterations 1
DILUPBiCGStab:  Solving for h, Initial residual = 1.05034e-05, Final residual = 9.07153e-11, No Iterations 1
DICPCG:  Solving for p_rgh, Initial residual = 0.000152423, Final residual = 1.33406e-06, No Iterations 20
diagonal:  Solving for rho, Initial residual = 0, Final residual = 0, No Iterations 0
time step continuity errors : sum local = 7.93073e-11, global = 2.65218e-12, cumulative = -1.446e-07
DICPCG:  Solving for p_rgh, Initial residual = 1.58066e-06, Final residual = 5.62171e-09, No Iterations 23
diagonal:  Solving for rho, Initial residual = 0, Final residual = 0, No Iterations 0
time step continuity errors : sum local = 1.0782e-12, global = 1.00634e-12, cumulative = -1.44599e-07
DILUPBiCGStab:  Solving for epsilon, Initial residual = 1.00233e-06, Final residual = 1.44617e-11, No Iterations 1
DILUPBiCGStab:  Solving for k, Initial residual = 1.69351e-06, Final residual = 2.51048e-11, No Iterations 1
ExecutionTime = 0.09 s  ClockTime = 0 s

Courant Number mean: 0.00571368 max: 0.0279419
Time = 710.37

diagonal:  Solving for rho, Initial residual = 0, Final residual = 0, No Iterations 0
DILUPBiCGStab:  Solving for Ux, Initial residual = 2.26376e-06, Final residual = 1.56508e-11, No Iterations 1
DILUPBiCGStab:  Solving for Uy, Initial residual = 1.67941e-06, Final residual = 1.53863e-11, No Iterations 1
DILUPBiCGStab:  Solving for h, Initial residual = 1.06571e-05, Final residual = 9.12413e-11, No Iterations 1
DICPCG:  Solving for p_rgh, Initial residual = 0.000119893, Final residual = 8.62849e-07, No Iterations 16
diagonal:  Solving for rho, Initial residual = 0, Final residual = 0, No Iterations 0
time step continuity errors : sum local = 5.12888e-11, global = 2.43938e-12, cumulative = -1.44597e-07
DICPCG:  Solving for p_rgh, Initial residual = 1.04947e-06, Final residual = 7.95789e-09, No Iterations 21
diagonal:  Solving for rho, Initial residual = 0, Final residual = 0, No Iterations 0
time step continuity errors : sum local = 9.74368e-13, global = 7.59092e-13, cumulative = -1.44596e-07
DILUPBiCGStab:  Solving for epsilon, Initial residual = 1.00474e-06, Final residual = 1.44804e-11, No Iterations 1
DILUPBiCGStab:  Solving for k, Initial residual = 1.69681e-06, Final residual = 2.51451e-11, No Iterations 1
ExecutionTime = 0.1 s  ClockTime = 0 s

Courant Number mean: 0.00571369 max: 0.0279421
Time = 710.38

diagonal:  Solving for rho, Initial residual = 0, Final residual = 0, No Iterations 0
DILUPBiCGStab:  Solving for Ux, Initial residual = 3.67984e-06, Final residual = 2.55673e-11, No Iterations 1
DILUPBiCGStab:  Solving for Uy, Initial residual = 2.25759e-06, Final residual = 2.05456e-11, No Iterations 1
DILUPBiCGStab:  Solving for h, Initial residual = 1.10809e-05, Final residual = 9.32939e-11, No Iterations 1
DICPCG:  Solving for p_rgh, Initial residual = 7.30101e-05, Final residual = 5.44221e-07, No Iterations 21
diagonal:  Solving for rho, Initial residual = 0, Final residual = 0, No Iterations 0
time step continuity errors : sum local = 3.28007e-11, global = 1.13367e-12, cumulative = -1.44595e-07
DICPCG:  Solving for p_rgh, Initial residual = 6.36116e-07, Final residual = 6.63849e-09, No Iterations 22
diagonal:  Solving for rho, Initial residual = 0, Final residual = 0, No Iterations 0
time step continuity errors : sum local = 5.96707e-13, global = 4.34425e-13, cumulative = -1.44595e-07
DILUPBiCGStab:  Solving for epsilon, Initial residual = 1.00772e-06, Final residual = 1.45038e-11, No Iterations 1
DILUPBiCGStab:  Solving for k, Initial residual = 1.70097e-06, Final residual = 2.51947e-11, No Iterations 1
ExecutionTime = 0.1 s  ClockTime = 0 s

Courant Number mean: 0.0057137 max: 0.0279423
Time = 710.39

diagonal:  Solving for rho, Initial residual = 0, Final residual = 0, No Iterations 0
DILUPBiCGStab:  Solving for Ux, Initial residual = 4.46061e-06, Final residual = 3.15064e-11, No Iterations 1
DILUPBiCGStab:  Solving for Uy, Initial residual = 2.5993e-06, Final residual = 2.37129e-11, No Iterations 1
DILUPBiCGStab:  Solving for h, Initial residual = 1.16859e-05, Final residual = 9.63871e-11, No Iterations 1
DICPCG:  Solving for p_rgh, Initial residual = 2.66571e-05, Final residual = 1.86685e-07, No Iterations 22
diagonal:  Solving for rho, Initial residual = 0, Final residual = 0, No Iterations 0
time step continuity errors : sum local = 1.13537e-11, global = 1.50359e-12, cumulative = -1.44593e-07
DICPCG:  Solving for p_rgh, Initial residual = 2.30955e-07, Final residual = 9.9189e-09, No Iterations 17
diagonal:  Solving for rho, Initial residual = 0, Final residual = 0, No Iterations 0
time step continuity errors : sum local = 6.28633e-13, global = 9.85806e-14, cumulative = -1.44593e-07
DILUPBiCGStab:  Solving for epsilon, Initial residual = 1.01066e-06, Final residual = 1.45249e-11, No Iterations 1
DILUPBiCGStab:  Solving for k, Initial residual = 1.70557e-06, Final residual = 2.52418e-11, No Iterations 1
ExecutionTime = 0.1 s  ClockTime = 0 s

Courant Number mean: 0.00571371 max: 0.0279425
Time = 710.4

diagonal:  Solving for rho, Initial residual = 0, Final residual = 0, No Iterations 0
DILUPBiCGStab:  Solving for Ux, Initial residual = 4.48015e-06, Final residual = 3.1747e-11, No Iterations 1
DILUPBiCGStab:  Solving for Uy, Initial residual = 2.64378e-06, Final residual = 2.4107e-11, No Iterations 1
DILUPBiCGStab:  Solving for h, Initial residual = 1.23654e-05, Final residual = 1.00154e-10, No Iterations 1
DICPCG:  Solving for p_rgh, Initial residual = 4.1621e-05, Final residual = 3.58191e-07, No Iterations 18
diagonal:  Solving for rho, Initial residual = 0, Final residual = 0, No Iterations 0
time step continuity errors : sum local = 2.15517e-11, global = 1.58576e-12, cumulative = -1.44591e-07
DICPCG:  Solving for p_rgh, Initial residual = 4.84863e-07, Final residual = 9.15983e-09, No Iterations 21
diagonal:  Solving for rho, Initial residual = 0, Final residual = 0, No Iterations 0
time step continuity errors : sum local = 6.29869e-13, global = -2.21045e-13, cumulative = -1.44592e-07
DILUPBiCGStab:  Solving for epsilon, Initial residual = 1.01425e-06, Final residual = 1.45524e-11, No Iterations 1
DILUPBiCGStab:  Solving for k, Initial residual = 1.70942e-06, Final residual = 2.52785e-11, No Iterations 1
ExecutionTime = 0.1 s  ClockTime = 0 s

Courant Number mean: 0.00571372 max: 0.0279426
Time = 710.41

diagonal:  Solving for rho, Initial residual = 0, Final residual = 0, No Iterations 0
DILUPBiCGStab:  Solving for Ux, Initial residual = 3.82971e-06, Final residual = 2.69657e-11, No Iterations 1
DILUPBiCGStab:  Solving for Uy, Initial residual = 2.42125e-06, Final residual = 2.19951e-11, No Iterations 1
DILUPBiCGStab:  Solving for h, Initial residual = 1.29985e-05, Final residual = 1.03721e-10, No Iterations 1
DICPCG:  Solving for p_rgh, Initial residual = 6.93176e-05, Final residual = 4.75683e-07, No Iterations 20
diagonal:  Solving for rho, Initial residual = 0, Final residual = 0, No Iterations 0
time step continuity errors : sum local = 2.82423e-11, global = 1.69625e-12, cumulative = -1.4459e-07
DICPCG:  Solving for p_rgh, Initial residual = 6.62077e-07, Final residual = 7.46785e-09, No Iterations 22
diagonal:  Solving for rho, Initial residual = 0, Final residual = 0, No Iterations 0
time step continuity errors : sum local = 7.04241e-13, global = -4.85627e-13, cumulative = -1.4459e-07
DILUPBiCGStab:  Solving for epsilon, Initial residual = 1.01711e-06, Final residual = 1.45684e-11, No Iterations 1
DILUPBiCGStab:  Solving for k, Initial residual = 1.71196e-06, Final residual = 2.53004e-11, No Iterations 1
ExecutionTime = 0.11 s  ClockTime = 0 s

Courant Number mean: 0.00571373 max: 0.0279427
Time = 710.42

diagonal:  Solving for rho, Initial residual = 0, Final residual = 0, No Iterations 0
DILUPBiCGStab:  Solving for Ux, Initial residual = 2.72592e-06, Final residual = 1.90102e-11, No Iterations 1
DILUPBiCGStab:  Solving for Uy, Initial residual = 2.00386e-06, Final residual = 1.81129e-11, No Iterations 1
DILUPBiCGStab:  Solving for h, Initial residual = 1.34775e-05, Final residual = 1.06435e-10, No Iterations 1
DICPCG:  Solving for p_rgh, Initial residual = 9.07266e-05, Final residual = 7.24559e-07, No Iterations 20
diagonal:  Solving for rho, Initial residual = 0, Final residual = 0, No Iterations 0
time step continuity errors : sum local = 4.2867e-11, global = 1.11807e-12, cumulative = -1.44589e-07
DICPCG:  Solving for p_rgh, Initial residual = 9.34336e-07, Final residual = 6.45326e-09, No Iterations 23
diagonal:  Solving for rho, Initial residual = 0, Final residual = 0, No Iterations 0
time step continuity errors : sum local = 7.48066e-13, global = -6.34842e-13, cumulative = -1.4459e-07
DILUPBiCGStab:  Solving for epsilon, Initial residual = 1.01802e-06, Final residual = 1.45702e-11, No Iterations 1
DILUPBiCGStab:  Solving for k, Initial residual = 1.71322e-06, Final residual = 2.53059e-11, No Iterations 1
ExecutionTime = 0.11 s  ClockTime = 0 s

Courant Number mean: 0.00571373 max: 0.0279428
Time = 710.43

diagonal:  Solving for rho, Initial residual = 0, Final residual = 0, No Iterations 0
DILUPBiCGStab:  Solving for Ux, Initial residual = 1.59111e-06, Final residual = 1.22111e-11, No Iterations 1
DILUPBiCGStab:  Solving for Uy, Initial residual = 1.50098e-06, Final residual = 1.34528e-11, No Iterations 1
DILUPBiCGStab:  Solving for h, Initial residual = 1.37426e-05, Final residual = 1.07897e-10, No Iterations 1
DICPCG:  Solving for p_rgh, Initial residual = 9.69822e-05, Final residual = 8.63739e-07, No Iterations 20
diagonal:  Solving for rho, Initial residual = 0, Final residual = 0, No Iterations 0
time step continuity errors : sum local = 5.11237e-11, global = 1.03245e-12, cumulative = -1.44589e-07
DICPCG:  Solving for p_rgh, Initial residual = 1.04667e-06, Final residual = 5.1479e-09, No Iterations 23
diagonal:  Solving for rho, Initial residual = 0, Final residual = 0, No Iterations 0
time step continuity errors : sum local = 7.50075e-13, global = -6.53603e-13, cumulative = -1.44589e-07
DILUPBiCGStab:  Solving for epsilon, Initial residual = 1.01702e-06, Final residual = 1.45523e-11, No Iterations 1
DILUPBiCGStab:  Solving for k, Initial residual = 1.7123e-06, Final residual = 2.52947e-11, No Iterations 1
ExecutionTime = 0.11 s  ClockTime = 0 s

Courant Number mean: 0.00571374 max: 0.0279428
Time = 710.44

diagonal:  Solving for rho, Initial residual = 0, Final residual = 0, No Iterations 0
DILUPBiCGStab:  Solving for Ux, Initial residual = 1.11639e-06, Final residual = 1.1449e-11, No Iterations 1
DILUPBiCGStab:  Solving for Uy, Initial residual = 1.07286e-06, Final residual = 1.00969e-11, No Iterations 1
DILUPBiCGStab:  Solving for h, Initial residual = 1.37773e-05, Final residual = 1.07956e-10, No Iterations 1
DICPCG:  Solving for p_rgh, Initial residual = 8.74876e-05, Final residual = 8.61471e-07, No Iterations 18
diagonal:  Solving for rho, Initial residual = 0, Final residual = 0, No Iterations 0
time step continuity errors : sum local = 5.13734e-11, global = -5.102e-13, cumulative = -1.4459e-07
DICPCG:  Solving for p_rgh, Initial residual = 9.93056e-07, Final residual = 5.9048e-09, No Iterations 24
diagonal:  Solving for rho, Initial residual = 0, Final residual = 0, No Iterations 0
time step continuity errors : sum local = 6.81658e-13, global = -5.70826e-13, cumulative = -1.44591e-07
DILUPBiCGStab:  Solving for epsilon, Initial residual = 1.01441e-06, Final residual = 1.45207e-11, No Iterations 1
DILUPBiCGStab:  Solving for k, Initial residual = 1.7097e-06, Final residual = 2.52695e-11, No Iterations 1
ExecutionTime = 0.11 s  ClockTime = 0 s

Courant Number mean: 0.00571374 max: 0.0279428
Time = 710.45

diagonal:  Solving for rho, Initial residual = 0, Final residual = 0, No Iterations 0
DILUPBiCGStab:  Solving for Ux, Initial residual = 1.69887e-06, Final residual = 1.67413e-11, No Iterations 1
DILUPBiCGStab:  Solving for Uy, Initial residual = 1.11502e-06, Final residual = 1.1239e-11, No Iterations 1
DILUPBiCGStab:  Solving for h, Initial residual = 1.3603e-05, Final residual = 1.06714e-10, No Iterations 1
DICPCG:  Solving for p_rgh, Initial residual = 6.55931e-05, Final residual = 4.56212e-07, No Iterations 16
diagonal:  Solving for rho, Initial residual = 0, Final residual = 0, No Iterations 0
time step continuity errors : sum local = 2.74077e-11, global = 1.8644e-12, cumulative = -1.44589e-07
DICPCG:  Solving for p_rgh, Initial residual = 5.66296e-07, Final residual = 8.42922e-09, No Iterations 14
diagonal:  Solving for rho, Initial residual = 0, Final residual = 0, No Iterations 0
time step continuity errors : sum local = 6.82035e-13, global = -3.84053e-13, cumulative = -1.44589e-07
DILUPBiCGStab:  Solving for epsilon, Initial residual = 1.01072e-06, Final residual = 1.44809e-11, No Iterations 1
DILUPBiCGStab:  Solving for k, Initial residual = 1.70653e-06, Final residual = 2.52345e-11, No Iterations 1
ExecutionTime = 0.12 s  ClockTime = 0 s

Courant Number mean: 0.00571374 max: 0.0279427
Time = 710.46

diagonal:  Solving for rho, Initial residual = 0, Final residual = 0, No Iterations 0
DILUPBiCGStab:  Solving for Ux, Initial residual = 2.35115e-06, Final residual = 2.152e-11, No Iterations 1
DILUPBiCGStab:  Solving for Uy, Initial residual = 1.31425e-06, Final residual = 1.28835e-11, No Iterations 1
DILUPBiCGStab:  Solving for h, Initial residual = 1.32709e-05, Final residual = 1.04496e-10, No Iterations 1
DICPCG:  Solving for p_rgh, Initial residual = 3.74094e-05, Final residual = 3.34314e-07, No Iterations 21
diagonal:  Solving for rho, Initial residual = 0, Final residual = 0, No Iterations 0
time step continuity errors : sum local = 1.97926e-11, global = 1.82694e-12, cumulative = -1.44587e-07
DICPCG:  Solving for p_rgh, Initial residual = 3.74117e-07, Final residual = 8.33535e-09, No Iterations 19
diagonal:  Solving for rho, Initial residual = 0, Final residual = 0, No Iterations 0
time step continuity errors : sum local = 5.48629e-13, global = -2.20208e-13, cumulative = -1.44587e-07
DILUPBiCGStab:  Solving for epsilon, Initial residual = 1.00696e-06, Final residual = 1.4446e-11, No Iterations 1
DILUPBiCGStab:  Solving for k, Initial residual = 1.70293e-06, Final residual = 2.51942e-11, No Iterations 1
ExecutionTime = 0.12 s  ClockTime = 0 s

Courant Number mean: 0.00571374 max: 0.0279426
Time = 710.47

diagonal:  Solving for rho, Initial residual = 0, Final residual = 0, No Iterations 0
DILUPBiCGStab:  Solving for Ux, Initial residual = 2.6863e-06, Final residual = 2.38192e-11, No Iterations 1
DILUPBiCGStab:  Solving for Uy, Initial residual = 1.44071e-06, Final residual = 1.39651e-11, No Iterations 1
DILUPBiCGStab:  Solving for h, Initial residual = 1.28504e-05, Final residual = 1.01744e-10, No Iterations 1
DICPCG:  Solving for p_rgh, Initial residual = 1.76473e-05, Final residual = 1.72228e-07, No Iterations 21
diagonal:  Solving for rho, Initial residual = 0, Final residual = 0, No Iterations 0
time step continuity errors : sum local = 1.04539e-11, global = 1.92926e-12, cumulative = -1.44586e-07
DICPCG:  Solving for p_rgh, Initial residual = 2.0755e-07, Final residual = 9.0767e-09, No Iterations 13
diagonal:  Solving for rho, Initial residual = 0, Final residual = 0, No Iterations 0
time step continuity errors : sum local = 5.64453e-13, global = 5.68405e-15, cumulative = -1.44586e-07
DILUPBiCGStab:  Solving for epsilon, Initial residual = 1.0044e-06, Final residual = 1.44148e-11, No Iterations 1
DILUPBiCGStab:  Solving for k, Initial residual = 1.69945e-06, Final residual = 2.51538e-11, No Iterations 1
ExecutionTime = 0.12 s  ClockTime = 0 s

Courant Number mean: 0.00571374 max: 0.0279425
Time = 710.48

diagonal:  Solving for rho, Initial residual = 0, Final residual = 0, No Iterations 0
DILUPBiCGStab:  Solving for Ux, Initial residual = 2.60418e-06, Final residual = 2.3212e-11, No Iterations 1
DILUPBiCGStab:  Solving for Uy, Initial residual = 1.43725e-06, Final residual = 1.38168e-11, No Iterations 1
DILUPBiCGStab:  Solving for h, Initial residual = 1.24159e-05, Final residual = 9.8901e-11, No Iterations 1
DICPCG:  Solving for p_rgh, Initial residual = 3.02549e-05, Final residual = 2.5724e-07, No Iterations 18
diagonal:  Solving for rho, Initial residual = 0, Final residual = 0, No Iterations 0
time step continuity errors : sum local = 1.55578e-11, global = 1.86795e-12, cumulative = -1.44584e-07
DICPCG:  Solving for p_rgh, Initial residual = 3.475e-07, Final residual = 9.23321e-09, No Iterations 10
diagonal:  Solving for rho, Initial residual = 0, Final residual = 0, No Iterations 0
time step continuity errors : sum local = 6.068e-13, global = 2.35526e-13, cumulative = -1.44583e-07
DILUPBiCGStab:  Solving for epsilon, Initial residual = 1.00224e-06, Final residual = 1.43865e-11, No Iterations 1
DILUPBiCGStab:  Solving for k, Initial residual = 1.69655e-06, Final residual = 2.51186e-11, No Iterations 1
ExecutionTime = 0.12 s  ClockTime = 0 s

Courant Number mean: 0.00571375 max: 0.0279424
Time = 710.49

diagonal:  Solving for rho, Initial residual = 0, Final residual = 0, No Iterations 0
DILUPBiCGStab:  Solving for Ux, Initial residual = 2.18093e-06, Final residual = 2.0239e-11, No Iterations 1
DILUPBiCGStab:  Solving for Uy, Initial residual = 1.32545e-06, Final residual = 1.27208e-11, No Iterations 1
DILUPBiCGStab:  Solving for h, Initial residual = 1.20349e-05, Final residual = 9.63978e-11, No Iterations 1
DICPCG:  Solving for p_rgh, Initial residual = 4.55e-05, Final residual = 3.43937e-07, No Iterations 20
diagonal:  Solving for rho, Initial residual = 0, Final residual = 0, No Iterations 0
time step continuity errors : sum local = 2.03504e-11, global = 1.81048e-12, cumulative = -1.44582e-07
DICPCG:  Solving for p_rgh, Initial residual = 4.66278e-07, Final residual = 9.43033e-09, No Iterations 17
diagonal:  Solving for rho, Initial residual = 0, Final residual = 0, No Iterations 0
time step continuity errors : sum local = 6.57491e-13, global = 2.48035e-13, cumulative = -1.44581e-07
DILUPBiCGStab:  Solving for epsilon, Initial residual = 1.00069e-06, Final residual = 1.43637e-11, No Iterations 1
DILUPBiCGStab:  Solving for k, Initial residual = 1.69454e-06, Final residual = 2.50925e-11, No Iterations 1
ExecutionTime = 0.12 s  ClockTime = 0 s

Courant Number mean: 0.00571375 max: 0.0279424
Time = 710.5

diagonal:  Solving for rho, Initial residual = 0, Final residual = 0, No Iterations 0
DILUPBiCGStab:  Solving for Ux, Initial residual = 1.62279e-06, Final residual = 1.59587e-11, No Iterations 1
DILUPBiCGStab:  Solving for Uy, Initial residual = 1.16975e-06, Final residual = 1.12805e-11, No Iterations 1
DILUPBiCGStab:  Solving for h, Initial residual = 1.17582e-05, Final residual = 9.45397e-11, No Iterations 1
DICPCG:  Solving for p_rgh, Initial residual = 5.62391e-05, Final residual = 4.50456e-07, No Iterations 20
diagonal:  Solving for rho, Initial residual = 0, Final residual = 0, No Iterations 0
time step continuity errors : sum local = 2.6642e-11, global = 1.97578e-12, cumulative = -1.44579e-07
DICPCG:  Solving for p_rgh, Initial residual = 5.77309e-07, Final residual = 9.2725e-09, No Iterations 19
diagonal:  Solving for rho, Initial residual = 0, Final residual = 0, No Iterations 0
time step continuity errors : sum local = 6.88286e-13, global = 3.1394e-13, cumulative = -1.44579e-07
DILUPBiCGStab:  Solving for epsilon, Initial residual = 9.99836e-07, Final residual = 9.99836e-07, No Iterations 0
DILUPBiCGStab:  Solving for k, Initial residual = 1.69605e-06, Final residual = 2.51214e-11, No Iterations 1
ExecutionTime = 0.13 s  ClockTime = 0 s

Courant Number mean: 0.00571375 max: 0.0279424
Time = 710.51

diagonal:  Solving for rho, Initial residual = 0, Final residual = 0, No Iterations 0
DILUPBiCGStab:  Solving for Ux, Initial residual = 1.17353e-06, Final residual = 1.21663e-11, No Iterations 1
DILUPBiCGStab:  Solving for Uy, Initial residual = 1.06254e-06, Final residual = 1.00886e-11, No Iterations 1
DILUPBiCGStab:  Solving for h, Initial residual = 1.16145e-05, Final residual = 9.34847e-11, No Iterations 1
DICPCG:  Solving for p_rgh, Initial residual = 5.76049e-05, Final residual = 5.10177e-07, No Iterations 20
diagonal:  Solving for rho, Initial residual = 0, Final residual = 0, No Iterations 0
time step continuity errors : sum local = 3.0266e-11, global = 2.0145e-12, cumulative = -1.44577e-07
DICPCG:  Solving for p_rgh, Initial residual = 6.1007e-07, Final residual = 6.87177e-09, No Iterations 22
diagonal:  Solving for rho, Initial residual = 0, Final residual = 0, No Iterations 0
time step continuity errors : sum local = 6.09385e-13, global = 3.76276e-13, cumulative = -1.44577e-07
DILUPBiCGStab:  Solving for epsilon, Initial residual = 1.00808e-06, Final residual = 1.4443e-11, No Iterations 1
DILUPBiCGStab:  Solving for k, Initial residual = 1.69817e-06, Final residual = 2.51522e-11, No Iterations 1
ExecutionTime = 0.13 s  ClockTime = 0 s

Courant Number mean: 0.00571376 max: 0.0279424
Time = 710.52

diagonal:  Solving for rho, Initial residual = 0, Final residual = 0, No Iterations 0
DILUPBiCGStab:  Solving for Ux, Initial residual = 1.15537e-06, Final residual = 1.07189e-11, No Iterations 1
DILUPBiCGStab:  Solving for Uy, Initial residual = 1.16155e-06, Final residual = 1.09165e-11, No Iterations 1
DILUPBiCGStab:  Solving for h, Initial residual = 1.16071e-05, Final residual = 9.32527e-11, No Iterations 1
DICPCG:  Solving for p_rgh, Initial residual = 5.00127e-05, Final residual = 4.93568e-07, No Iterations 17
diagonal:  Solving for rho, Initial residual = 0, Final residual = 0, No Iterations 0
time step continuity errors : sum local = 2.92236e-11, global = 2.81437e-12, cumulative = -1.44574e-07
DICPCG:  Solving for p_rgh, Initial residual = 5.84074e-07, Final residual = 9.75112e-09, No Iterations 21
diagonal:  Solving for rho, Initial residual = 0, Final residual = 0, No Iterations 0
time step continuity errors : sum local = 6.76294e-13, global = 2.90181e-13, cumulative = -1.44574e-07
DILUPBiCGStab:  Solving for epsilon, Initial residual = 1.00832e-06, Final residual = 1.4439e-11, No Iterations 1
DILUPBiCGStab:  Solving for k, Initial residual = 1.69879e-06, Final residual = 2.51567e-11, No Iterations 1
ExecutionTime = 0.13 s  ClockTime = 0 s

Courant Number mean: 0.00571376 max: 0.0279425
Time = 710.53

diagonal:  Solving for rho, Initial residual = 0, Final residual = 0, No Iterations 0
DILUPBiCGStab:  Solving for Ux, Initial residual = 1.49332e-06, Final residual = 1.16949e-11, No Iterations 1
DILUPBiCGStab:  Solving for Uy, Initial residual = 1.34895e-06, Final residual = 1.23329e-11, No Iterations 1
DILUPBiCGStab:  Solving for h, Initial residual = 1.17192e-05, Final residual = 9.37605e-11, No Iterations 1
DICPCG:  Solving for p_rgh, Initial residual = 3.59694e-05, Final residual = 3.01078e-07, No Iterations 16
diagonal:  Solving for rho, Initial residual = 0, Final residual = 0, No Iterations 0
time step continuity errors : sum local = 1.79965e-11, global = 9.70665e-13, cumulative = -1.44573e-07
DICPCG:  Solving for p_rgh, Initial residual = 3.52496e-07, Final residual = 8.33361e-09, No Iterations 12
diagonal:  Solving for rho, Initial residual = 0, Final residual = 0, No Iterations 0
time step continuity errors : sum local = 5.67548e-13, global = 2.00514e-13, cumulative = -1.44572e-07
DILUPBiCGStab:  Solving for epsilon, Initial residual = 1.00888e-06, Final residual = 1.44383e-11, No Iterations 1
DILUPBiCGStab:  Solving for k, Initial residual = 1.69994e-06, Final residual = 2.51667e-11, No Iterations 1
ExecutionTime = 0.13 s  ClockTime = 0 s

Courant Number mean: 0.00571377 max: 0.0279426
Time = 710.54

diagonal:  Solving for rho, Initial residual = 0, Final residual = 0, No Iterations 0
DILUPBiCGStab:  Solving for Ux, Initial residual = 1.7975e-06, Final residual = 1.31475e-11, No Iterations 1
DILUPBiCGStab:  Solving for Uy, Initial residual = 1.50882e-06, Final residual = 1.36012e-11, No Iterations 1
DILUPBiCGStab:  Solving for h, Initial residual = 1.19169e-05, Final residual = 9.48254e-11, No Iterations 1
DICPCG:  Solving for p_rgh, Initial residual = 2.04273e-05, Final residual = 1.66729e-07, No Iterations 21
diagonal:  Solving for rho, Initial residual = 0, Final residual = 0, No Iterations 0
time step continuity errors : sum local = 1.04625e-11, global = 1.4883e-12, cumulative = -1.44571e-07
DICPCG:  Solving for p_rgh, Initial residual = 1.9474e-07, Final residual = 9.9974e-09, No Iterations 16
diagonal:  Solving for rho, Initial residual = 0, Final residual = 0, No Iterations 0
time step continuity errors : sum local = 6.1998e-13, global = 1.39618e-13, cumulative = -1.44571e-07
DILUPBiCGStab:  Solving for epsilon, Initial residual = 1.00954e-06, Final residual = 1.44387e-11, No Iterations 1
DILUPBiCGStab:  Solving for k, Initial residual = 1.70127e-06, Final residual = 2.51784e-11, No Iterations 1
ExecutionTime = 0.14 s  ClockTime = 0 s

Courant Number mean: 0.00571377 max: 0.0279426
Time = 710.55

diagonal:  Solving for rho, Initial residual = 0, Final residual = 0, No Iterations 0
DILUPBiCGStab:  Solving for Ux, Initial residual = 1.91231e-06, Final residual = 1.38328e-11, No Iterations 1
DILUPBiCGStab:  Solving for Uy, Initial residual = 1.57602e-06, Final residual = 1.4121e-11, No Iterations 1
DILUPBiCGStab:  Solving for h, Initial residual = 1.21575e-05, Final residual = 9.61592e-11, No Iterations 1
DICPCG:  Solving for p_rgh, Initial residual = 1.46202e-05, Final residual = 1.078e-07, No Iterations 21
diagonal:  Solving for rho, Initial residual = 0, Final residual = 0, No Iterations 0
time step continuity errors : sum local = 6.87124e-12, global = 1.57123e-12, cumulative = -1.44569e-07
DICPCG:  Solving for p_rgh, Initial residual = 1.40237e-07, Final residual = 9.99909e-09, No Iterations 13
diagonal:  Solving for rho, Initial residual = 0, Final residual = 0, No Iterations 0
time step continuity errors : sum local = 6.13404e-13, global = 3.66746e-14, cumulative = -1.44569e-07
DILUPBiCGStab:  Solving for epsilon, Initial residual = 1.01009e-06, Final residual = 1.4438e-11, No Iterations 1
DILUPBiCGStab:  Solving for k, Initial residual = 1.70246e-06, Final residual = 2.51884e-11, No Iterations 1
ExecutionTime = 0.14 s  ClockTime = 0 s

Courant Number mean: 0.00571378 max: 0.0279427
Time = 710.56

diagonal:  Solving for rho, Initial residual = 0, Final residual = 0, No Iterations 0
DILUPBiCGStab:  Solving for Ux, Initial residual = 1.82577e-06, Final residual = 1.33687e-11, No Iterations 1
DILUPBiCGStab:  Solving for Uy, Initial residual = 1.548e-06, Final residual = 1.38193e-11, No Iterations 1
DILUPBiCGStab:  Solving for h, Initial residual = 1.23997e-05, Final residual = 9.74786e-11, No Iterations 1
DICPCG:  Solving for p_rgh, Initial residual = 2.19869e-05, Final residual = 1.45321e-07, No Iterations 20
diagonal:  Solving for rho, Initial residual = 0, Final residual = 0, No Iterations 0
time step continuity errors : sum local = 8.83204e-12, global = 1.66499e-12, cumulative = -1.44568e-07
DICPCG:  Solving for p_rgh, Initial residual = 2.02089e-07, Final residual = 8.19828e-09, No Iterations 16
diagonal:  Solving for rho, Initial residual = 0, Final residual = 0, No Iterations 0
time step continuity errors : sum local = 5.19447e-13, global = -9.52312e-14, cumulative = -1.44568e-07
DILUPBiCGStab:  Solving for epsilon, Initial residual = 1.01036e-06, Final residual = 1.44348e-11, No Iterations 1
DILUPBiCGStab:  Solving for k, Initial residual = 1.70326e-06, Final residual = 2.51942e-11, No Iterations 1
ExecutionTime = 0.14 s  ClockTime = 0 s

Courant Number mean: 0.00571379 max: 0.0279428
Time = 710.57

diagonal:  Solving for rho, Initial residual = 0, Final residual = 0, No Iterations 0
DILUPBiCGStab:  Solving for Ux, Initial residual = 1.58635e-06, Final residual = 1.2193e-11, No Iterations 1
DILUPBiCGStab:  Solving for Uy, Initial residual = 1.44392e-06, Final residual = 1.28677e-11, No Iterations 1
DILUPBiCGStab:  Solving for h, Initial residual = 1.26021e-05, Final residual = 9.85679e-11, No Iterations 1
DICPCG:  Solving for p_rgh, Initial residual = 2.94373e-05, Final residual = 2.37719e-07, No Iterations 20
diagonal:  Solving for rho, Initial residual = 0, Final residual = 0, No Iterations 0
time step continuity errors : sum local = 1.40846e-11, global = 1.42392e-12, cumulative = -1.44566e-07
DICPCG:  Solving for p_rgh, Initial residual = 3.05862e-07, Final residual = 7.45575e-09, No Iterations 19
diagonal:  Solving for rho, Initial residual = 0, Final residual = 0, No Iterations 0
time step continuity errors : sum local = 4.93485e-13, global = -1.79667e-13, cumulative = -1.44566e-07
DILUPBiCGStab:  Solving for epsilon, Initial residual = 1.01061e-06, Final residual = 1.44283e-11, No Iterations 1
DILUPBiCGStab:  Solving for k, Initial residual = 1.70353e-06, Final residual = 2.51943e-11, No Iterations 1
ExecutionTime = 0.14 s  ClockTime = 0 s

Courant Number mean: 0.00571379 max: 0.0279428
Time = 710.58

diagonal:  Solving for rho, Initial residual = 0, Final residual = 0, No Iterations 0
DILUPBiCGStab:  Solving for Ux, Initial residual = 1.30251e-06, Final residual = 1.10589e-11, No Iterations 1
DILUPBiCGStab:  Solving for Uy, Initial residual = 1.29386e-06, Final residual = 1.15593e-11, No Iterations 1
DILUPBiCGStab:  Solving for h, Initial residual = 1.27411e-05, Final residual = 9.92487e-11, No Iterations 1
DICPCG:  Solving for p_rgh, Initial residual = 3.45324e-05, Final residual = 3.24e-07, No Iterations 20
diagonal:  Solving for rho, Initial residual = 0, Final residual = 0, No Iterations 0
time step continuity errors : sum local = 1.91494e-11, global = 1.37143e-12, cumulative = -1.44565e-07
DICPCG:  Solving for p_rgh, Initial residual = 3.91185e-07, Final residual = 6.59736e-09, No Iterations 21
diagonal:  Solving for rho, Initial residual = 0, Final residual = 0, No Iterations 0
time step continuity errors : sum local = 4.81181e-13, global = -2.2613e-13, cumulative = -1.44565e-07
DILUPBiCGStab:  Solving for epsilon, Initial residual = 1.01019e-06, Final residual = 1.44182e-11, No Iterations 1
DILUPBiCGStab:  Solving for k, Initial residual = 1.7032e-06, Final residual = 2.51882e-11, No Iterations 1
ExecutionTime = 0.14 s  ClockTime = 0 s

Courant Number mean: 0.0057138 max: 0.0279428
Time = 710.59

diagonal:  Solving for rho, Initial residual = 0, Final residual = 0, No Iterations 0
DILUPBiCGStab:  Solving for Ux, Initial residual = 1.11935e-06, Final residual = 1.08452e-11, No Iterations 1
DILUPBiCGStab:  Solving for Uy, Initial residual = 1.131e-06, Final residual = 1.05222e-11, No Iterations 1
DILUPBiCGStab:  Solving for h, Initial residual = 1.27976e-05, Final residual = 9.94299e-11, No Iterations 1
DICPCG:  Solving for p_rgh, Initial residual = 3.40318e-05, Final residual = 3.30358e-07, No Iterations 20
[...]

Courant Number mean: 0.00571796 max: 0.0279576
Time = 719.86

diagonal:  Solving for rho, Initial residual = 0, Final residual = 0, No Iterations 0
DILUPBiCGStab:  Solving for Ux, Initial residual = 1.05919e-06, Final residual = 1.05805e-11, No Iterations 1
DILUPBiCGStab:  Solving for Uy, Initial residual = 1.03938e-06, Final residual = 9.99101e-12, No Iterations 1
DILUPBiCGStab:  Solving for h, Initial residual = 1.18614e-05, Final residual = 8.01845e-11, No Iterations 1
DICPCG:  Solving for p_rgh, Initial residual = 1.53751e-06, Final residual = 9.21728e-09, No Iterations 18
diagonal:  Solving for rho, Initial residual = 0, Final residual = 0, No Iterations 0
time step continuity errors : sum local = 1.78011e-12, global = 1.56696e-12, cumulative = -1.43058e-07
DICPCG:  Solving for p_rgh, Initial residual = 3.20471e-08, Final residual = 9.33839e-09, No Iterations 10
diagonal:  Solving for rho, Initial residual = 0, Final residual = 0, No Iterations 0
time step continuity errors : sum local = 5.79782e-13, global = 4.49251e-14, cumulative = -1.43058e-07
DILUPBiCGStab:  Solving for epsilon, Initial residual = 9.99428e-07, Final residual = 9.99428e-07, No Iterations 0
DILUPBiCGStab:  Solving for k, Initial residual = 1.65141e-06, Final residual = 2.43485e-11, No Iterations 1
ExecutionTime = 2.18 s  ClockTime = 2 s

Courant Number mean: 0.00571796 max: 0.0279576
Time = 719.87

diagonal:  Solving for rho, Initial residual = 0, Final residual = 0, No Iterations 0
DILUPBiCGStab:  Solving for Ux, Initial residual = 1.05908e-06, Final residual = 1.05799e-11, No Iterations 1
DILUPBiCGStab:  Solving for Uy, Initial residual = 1.03925e-06, Final residual = 9.99083e-12, No Iterations 1
DILUPBiCGStab:  Solving for h, Initial residual = 1.18611e-05, Final residual = 8.01838e-11, No Iterations 1
DICPCG:  Solving for p_rgh, Initial residual = 1.54307e-06, Final residual = 9.179e-09, No Iterations 18
diagonal:  Solving for rho, Initial residual = 0, Final residual = 0, No Iterations 0
time step continuity errors : sum local = 1.77684e-12, global = 1.56443e-12, cumulative = -1.43056e-07
DICPCG:  Solving for p_rgh, Initial residual = 3.20866e-08, Final residual = 9.38808e-09, No Iterations 10
diagonal:  Solving for rho, Initial residual = 0, Final residual = 0, No Iterations 0
time step continuity errors : sum local = 5.69578e-13, global = 3.58243e-14, cumulative = -1.43056e-07
DILUPBiCGStab:  Solving for epsilon, Initial residual = 1.00692e-06, Final residual = 1.43311e-11, No Iterations 1
DILUPBiCGStab:  Solving for k, Initial residual = 1.65308e-06, Final residual = 2.43746e-11, No Iterations 1
ExecutionTime = 2.18 s  ClockTime = 2 s

Courant Number mean: 0.00571797 max: 0.0279576
Time = 719.88

diagonal:  Solving for rho, Initial residual = 0, Final residual = 0, No Iterations 0
DILUPBiCGStab:  Solving for Ux, Initial residual = 1.05905e-06, Final residual = 1.05801e-11, No Iterations 1
DILUPBiCGStab:  Solving for Uy, Initial residual = 1.03916e-06, Final residual = 9.98955e-12, No Iterations 1
DILUPBiCGStab:  Solving for h, Initial residual = 1.18609e-05, Final residual = 8.01837e-11, No Iterations 1
DICPCG:  Solving for p_rgh, Initial residual = 1.53472e-06, Final residual = 9.2115e-09, No Iterations 18
diagonal:  Solving for rho, Initial residual = 0, Final residual = 0, No Iterations 0
time step continuity errors : sum local = 1.77521e-12, global = 1.55933e-12, cumulative = -1.43054e-07
DICPCG:  Solving for p_rgh, Initial residual = 3.20801e-08, Final residual = 9.59748e-09, No Iterations 10
diagonal:  Solving for rho, Initial residual = 0, Final residual = 0, No Iterations 0
time step continuity errors : sum local = 5.80665e-13, global = 3.8169e-14, cumulative = -1.43054e-07
DILUPBiCGStab:  Solving for epsilon, Initial residual = 1.00581e-06, Final residual = 1.43184e-11, No Iterations 1
DILUPBiCGStab:  Solving for k, Initial residual = 1.65244e-06, Final residual = 2.43642e-11, No Iterations 1
ExecutionTime = 2.19 s  ClockTime = 2 s

Courant Number mean: 0.00571797 max: 0.0279576
Time = 719.89

diagonal:  Solving for rho, Initial residual = 0, Final residual = 0, No Iterations 0
DILUPBiCGStab:  Solving for Ux, Initial residual = 1.05902e-06, Final residual = 1.05795e-11, No Iterations 1
DILUPBiCGStab:  Solving for Uy, Initial residual = 1.03913e-06, Final residual = 9.989e-12, No Iterations 1
DILUPBiCGStab:  Solving for h, Initial residual = 1.18607e-05, Final residual = 8.01838e-11, No Iterations 1
DICPCG:  Solving for p_rgh, Initial residual = 1.5372e-06, Final residual = 9.16911e-09, No Iterations 18
diagonal:  Solving for rho, Initial residual = 0, Final residual = 0, No Iterations 0
time step continuity errors : sum local = 1.77394e-12, global = 1.57102e-12, cumulative = -1.43053e-07
DICPCG:  Solving for p_rgh, Initial residual = 3.20892e-08, Final residual = 9.59046e-09, No Iterations 10
diagonal:  Solving for rho, Initial residual = 0, Final residual = 0, No Iterations 0
time step continuity errors : sum local = 5.82133e-13, global = 4.22573e-14, cumulative = -1.43053e-07
DILUPBiCGStab:  Solving for epsilon, Initial residual = 1.00471e-06, Final residual = 1.43058e-11, No Iterations 1
DILUPBiCGStab:  Solving for k, Initial residual = 1.6518e-06, Final residual = 2.43538e-11, No Iterations 1
ExecutionTime = 2.19 s  ClockTime = 2 s

Courant Number mean: 0.00571797 max: 0.0279576
Time = 719.9

diagonal:  Solving for rho, Initial residual = 0, Final residual = 0, No Iterations 0
DILUPBiCGStab:  Solving for Ux, Initial residual = 1.05899e-06, Final residual = 1.05789e-11, No Iterations 1
DILUPBiCGStab:  Solving for Uy, Initial residual = 1.0391e-06, Final residual = 9.98874e-12, No Iterations 1
DILUPBiCGStab:  Solving for h, Initial residual = 1.18605e-05, Final residual = 8.01837e-11, No Iterations 1
DICPCG:  Solving for p_rgh, Initial residual = 1.53658e-06, Final residual = 9.17525e-09, No Iterations 18
diagonal:  Solving for rho, Initial residual = 0, Final residual = 0, No Iterations 0
time step continuity errors : sum local = 1.78065e-12, global = 1.5691e-12, cumulative = -1.43051e-07
DICPCG:  Solving for p_rgh, Initial residual = 3.2248e-08, Final residual = 9.4965e-09, No Iterations 10
diagonal:  Solving for rho, Initial residual = 0, Final residual = 0, No Iterations 0
time step continuity errors : sum local = 5.91368e-13, global = 3.93849e-14, cumulative = -1.43051e-07
DILUPBiCGStab:  Solving for epsilon, Initial residual = 1.00361e-06, Final residual = 1.42931e-11, No Iterations 1
DILUPBiCGStab:  Solving for k, Initial residual = 1.65116e-06, Final residual = 2.43435e-11, No Iterations 1
ExecutionTime = 2.19 s  ClockTime = 2 s

Courant Number mean: 0.00571798 max: 0.0279577
Time = 719.91

diagonal:  Solving for rho, Initial residual = 0, Final residual = 0, No Iterations 0
DILUPBiCGStab:  Solving for Ux, Initial residual = 1.05896e-06, Final residual = 1.05783e-11, No Iterations 1
DILUPBiCGStab:  Solving for Uy, Initial residual = 1.03906e-06, Final residual = 9.9884e-12, No Iterations 1
DILUPBiCGStab:  Solving for h, Initial residual = 1.18603e-05, Final residual = 8.01837e-11, No Iterations 1
DICPCG:  Solving for p_rgh, Initial residual = 1.5372e-06, Final residual = 9.18245e-09, No Iterations 18
diagonal:  Solving for rho, Initial residual = 0, Final residual = 0, No Iterations 0
time step continuity errors : sum local = 1.77311e-12, global = 1.56095e-12, cumulative = -1.4305e-07
DICPCG:  Solving for p_rgh, Initial residual = 3.19759e-08, Final residual = 9.42133e-09, No Iterations 10
diagonal:  Solving for rho, Initial residual = 0, Final residual = 0, No Iterations 0
time step continuity errors : sum local = 5.67382e-13, global = 4.42473e-14, cumulative = -1.4305e-07
DILUPBiCGStab:  Solving for epsilon, Initial residual = 1.00253e-06, Final residual = 1.42805e-11, No Iterations 1
DILUPBiCGStab:  Solving for k, Initial residual = 1.65053e-06, Final residual = 2.43332e-11, No Iterations 1
ExecutionTime = 2.19 s  ClockTime = 2 s

Courant Number mean: 0.00571798 max: 0.0279577
Time = 719.92

diagonal:  Solving for rho, Initial residual = 0, Final residual = 0, No Iterations 0
DILUPBiCGStab:  Solving for Ux, Initial residual = 1.05893e-06, Final residual = 1.05777e-11, No Iterations 1
DILUPBiCGStab:  Solving for Uy, Initial residual = 1.03904e-06, Final residual = 9.9881e-12, No Iterations 1
DILUPBiCGStab:  Solving for h, Initial residual = 1.18601e-05, Final residual = 8.01837e-11, No Iterations 1
DICPCG:  Solving for p_rgh, Initial residual = 1.53676e-06, Final residual = 9.18638e-09, No Iterations 18
diagonal:  Solving for rho, Initial residual = 0, Final residual = 0, No Iterations 0
time step continuity errors : sum local = 1.78461e-12, global = 1.57278e-12, cumulative = -1.43048e-07
DICPCG:  Solving for p_rgh, Initial residual = 3.21839e-08, Final residual = 9.6361e-09, No Iterations 10
diagonal:  Solving for rho, Initial residual = 0, Final residual = 0, No Iterations 0
time step continuity errors : sum local = 5.82559e-13, global = 4.36204e-14, cumulative = -1.43048e-07
DILUPBiCGStab:  Solving for epsilon, Initial residual = 1.00145e-06, Final residual = 1.42679e-11, No Iterations 1
DILUPBiCGStab:  Solving for k, Initial residual = 1.6499e-06, Final residual = 2.4323e-11, No Iterations 1
ExecutionTime = 2.19 s  ClockTime = 2 s

Courant Number mean: 0.00571799 max: 0.0279577
Time = 719.93

diagonal:  Solving for rho, Initial residual = 0, Final residual = 0, No Iterations 0
DILUPBiCGStab:  Solving for Ux, Initial residual = 1.05891e-06, Final residual = 1.05771e-11, No Iterations 1
DILUPBiCGStab:  Solving for Uy, Initial residual = 1.03901e-06, Final residual = 9.98785e-12, No Iterations 1
DILUPBiCGStab:  Solving for h, Initial residual = 1.18599e-05, Final residual = 8.01837e-11, No Iterations 1
DICPCG:  Solving for p_rgh, Initial residual = 1.53687e-06, Final residual = 9.15247e-09, No Iterations 18
diagonal:  Solving for rho, Initial residual = 0, Final residual = 0, No Iterations 0
time step continuity errors : sum local = 1.77497e-12, global = 1.56578e-12, cumulative = -1.43046e-07
DICPCG:  Solving for p_rgh, Initial residual = 3.201e-08, Final residual = 9.39208e-09, No Iterations 10
diagonal:  Solving for rho, Initial residual = 0, Final residual = 0, No Iterations 0
time step continuity errors : sum local = 5.79082e-13, global = 4.29388e-14, cumulative = -1.43046e-07
DILUPBiCGStab:  Solving for epsilon, Initial residual = 1.00038e-06, Final residual = 1.42554e-11, No Iterations 1
DILUPBiCGStab:  Solving for k, Initial residual = 1.64928e-06, Final residual = 2.43129e-11, No Iterations 1
ExecutionTime = 2.2 s  ClockTime = 2 s

Courant Number mean: 0.00571799 max: 0.0279577
Time = 719.94

diagonal:  Solving for rho, Initial residual = 0, Final residual = 0, No Iterations 0
DILUPBiCGStab:  Solving for Ux, Initial residual = 1.05888e-06, Final residual = 1.05765e-11, No Iterations 1
DILUPBiCGStab:  Solving for Uy, Initial residual = 1.03898e-06, Final residual = 9.98751e-12, No Iterations 1
DILUPBiCGStab:  Solving for h, Initial residual = 1.18597e-05, Final residual = 8.01837e-11, No Iterations 1
DICPCG:  Solving for p_rgh, Initial residual = 1.53665e-06, Final residual = 9.18888e-09, No Iterations 18
diagonal:  Solving for rho, Initial residual = 0, Final residual = 0, No Iterations 0
time step continuity errors : sum local = 1.78085e-12, global = 1.56459e-12, cumulative = -1.43045e-07
DICPCG:  Solving for p_rgh, Initial residual = 3.22987e-08, Final residual = 9.58392e-09, No Iterations 10
diagonal:  Solving for rho, Initial residual = 0, Final residual = 0, No Iterations 0
time step continuity errors : sum local = 5.74123e-13, global = 3.79309e-14, cumulative = -1.43045e-07
DILUPBiCGStab:  Solving for epsilon, Initial residual = 9.99321e-07, Final residual = 9.99321e-07, No Iterations 0
DILUPBiCGStab:  Solving for k, Initial residual = 1.65118e-06, Final residual = 2.43475e-11, No Iterations 1
ExecutionTime = 2.2 s  ClockTime = 2 s

Courant Number mean: 0.005718 max: 0.0279577
Time = 719.95

diagonal:  Solving for rho, Initial residual = 0, Final residual = 0, No Iterations 0
DILUPBiCGStab:  Solving for Ux, Initial residual = 1.05877e-06, Final residual = 1.05759e-11, No Iterations 1
DILUPBiCGStab:  Solving for Uy, Initial residual = 1.03885e-06, Final residual = 9.98736e-12, No Iterations 1
DILUPBiCGStab:  Solving for h, Initial residual = 1.18594e-05, Final residual = 8.01829e-11, No Iterations 1
DICPCG:  Solving for p_rgh, Initial residual = 1.54254e-06, Final residual = 9.18831e-09, No Iterations 18
diagonal:  Solving for rho, Initial residual = 0, Final residual = 0, No Iterations 0
time step continuity errors : sum local = 1.78043e-12, global = 1.56634e-12, cumulative = -1.43043e-07
DICPCG:  Solving for p_rgh, Initial residual = 3.2067e-08, Final residual = 9.29696e-09, No Iterations 10
diagonal:  Solving for rho, Initial residual = 0, Final residual = 0, No Iterations 0
time step continuity errors : sum local = 5.68955e-13, global = 4.79521e-14, cumulative = -1.43043e-07
DILUPBiCGStab:  Solving for epsilon, Initial residual = 1.00681e-06, Final residual = 1.4334e-11, No Iterations 1
DILUPBiCGStab:  Solving for k, Initial residual = 1.65285e-06, Final residual = 2.43736e-11, No Iterations 1
ExecutionTime = 2.2 s  ClockTime = 2 s

Courant Number mean: 0.005718 max: 0.0279577
Time = 719.96

diagonal:  Solving for rho, Initial residual = 0, Final residual = 0, No Iterations 0
DILUPBiCGStab:  Solving for Ux, Initial residual = 1.05874e-06, Final residual = 1.05761e-11, No Iterations 1
DILUPBiCGStab:  Solving for Uy, Initial residual = 1.03876e-06, Final residual = 9.98606e-12, No Iterations 1
DILUPBiCGStab:  Solving for h, Initial residual = 1.18592e-05, Final residual = 8.01829e-11, No Iterations 1
DICPCG:  Solving for p_rgh, Initial residual = 1.53461e-06, Final residual = 9.18216e-09, No Iterations 18
diagonal:  Solving for rho, Initial residual = 0, Final residual = 0, No Iterations 0
time step continuity errors : sum local = 1.78502e-12, global = 1.5653e-12, cumulative = -1.43042e-07
DICPCG:  Solving for p_rgh, Initial residual = 3.23067e-08, Final residual = 9.4549e-09, No Iterations 10
diagonal:  Solving for rho, Initial residual = 0, Final residual = 0, No Iterations 0
time step continuity errors : sum local = 5.83508e-13, global = 3.82757e-14, cumulative = -1.43042e-07
DILUPBiCGStab:  Solving for epsilon, Initial residual = 1.00569e-06, Final residual = 1.43212e-11, No Iterations 1
DILUPBiCGStab:  Solving for k, Initial residual = 1.65221e-06, Final residual = 2.43631e-11, No Iterations 1
ExecutionTime = 2.2 s  ClockTime = 2 s

Courant Number mean: 0.00571801 max: 0.0279578
Time = 719.97

diagonal:  Solving for rho, Initial residual = 0, Final residual = 0, No Iterations 0
DILUPBiCGStab:  Solving for Ux, Initial residual = 1.05871e-06, Final residual = 1.05755e-11, No Iterations 1
DILUPBiCGStab:  Solving for Uy, Initial residual = 1.03873e-06, Final residual = 9.98553e-12, No Iterations 1
DILUPBiCGStab:  Solving for h, Initial residual = 1.1859e-05, Final residual = 8.01829e-11, No Iterations 1
DICPCG:  Solving for p_rgh, Initial residual = 1.53585e-06, Final residual = 9.15222e-09, No Iterations 18
diagonal:  Solving for rho, Initial residual = 0, Final residual = 0, No Iterations 0
time step continuity errors : sum local = 1.78126e-12, global = 1.56528e-12, cumulative = -1.4304e-07
DICPCG:  Solving for p_rgh, Initial residual = 3.20723e-08, Final residual = 9.27973e-09, No Iterations 10
diagonal:  Solving for rho, Initial residual = 0, Final residual = 0, No Iterations 0
time step continuity errors : sum local = 5.70367e-13, global = 3.74866e-14, cumulative = -1.4304e-07
DILUPBiCGStab:  Solving for epsilon, Initial residual = 1.00459e-06, Final residual = 1.43085e-11, No Iterations 1
DILUPBiCGStab:  Solving for k, Initial residual = 1.65156e-06, Final residual = 2.43527e-11, No Iterations 1
ExecutionTime = 2.21 s  ClockTime = 2 s

Courant Number mean: 0.00571801 max: 0.0279578
Time = 719.98

diagonal:  Solving for rho, Initial residual = 0, Final residual = 0, No Iterations 0
DILUPBiCGStab:  Solving for Ux, Initial residual = 1.05868e-06, Final residual = 1.05749e-11, No Iterations 1
DILUPBiCGStab:  Solving for Uy, Initial residual = 1.0387e-06, Final residual = 9.98524e-12, No Iterations 1
DILUPBiCGStab:  Solving for h, Initial residual = 1.18588e-05, Final residual = 8.01828e-11, No Iterations 1
DICPCG:  Solving for p_rgh, Initial residual = 1.53621e-06, Final residual = 9.22254e-09, No Iterations 18
diagonal:  Solving for rho, Initial residual = 0, Final residual = 0, No Iterations 0
time step continuity errors : sum local = 1.78283e-12, global = 1.55944e-12, cumulative = -1.43038e-07
DICPCG:  Solving for p_rgh, Initial residual = 3.24061e-08, Final residual = 9.78386e-09, No Iterations 10
diagonal:  Solving for rho, Initial residual = 0, Final residual = 0, No Iterations 0
time step continuity errors : sum local = 5.95671e-13, global = 3.18497e-14, cumulative = -1.43038e-07
DILUPBiCGStab:  Solving for epsilon, Initial residual = 1.00349e-06, Final residual = 1.42958e-11, No Iterations 1
DILUPBiCGStab:  Solving for k, Initial residual = 1.65093e-06, Final residual = 2.43424e-11, No Iterations 1
ExecutionTime = 2.21 s  ClockTime = 2 s

Courant Number mean: 0.00571802 max: 0.0279578
Time = 719.99

diagonal:  Solving for rho, Initial residual = 0, Final residual = 0, No Iterations 0
DILUPBiCGStab:  Solving for Ux, Initial residual = 1.05866e-06, Final residual = 1.05743e-11, No Iterations 1
DILUPBiCGStab:  Solving for Uy, Initial residual = 1.03867e-06, Final residual = 9.98496e-12, No Iterations 1
DILUPBiCGStab:  Solving for h, Initial residual = 1.18586e-05, Final residual = 8.01828e-11, No Iterations 1
DICPCG:  Solving for p_rgh, Initial residual = 1.53636e-06, Final residual = 9.166e-09, No Iterations 18
diagonal:  Solving for rho, Initial residual = 0, Final residual = 0, No Iterations 0
time step continuity errors : sum local = 1.77035e-12, global = 1.56384e-12, cumulative = -1.43037e-07
DICPCG:  Solving for p_rgh, Initial residual = 3.18196e-08, Final residual = 9.22452e-09, No Iterations 10
diagonal:  Solving for rho, Initial residual = 0, Final residual = 0, No Iterations 0
time step continuity errors : sum local = 5.67631e-13, global = 4.12385e-14, cumulative = -1.43037e-07
DILUPBiCGStab:  Solving for epsilon, Initial residual = 1.0024e-06, Final residual = 1.42832e-11, No Iterations 1
DILUPBiCGStab:  Solving for k, Initial residual = 1.65029e-06, Final residual = 2.43321e-11, No Iterations 1
ExecutionTime = 2.21 s  ClockTime = 2 s

Courant Number mean: 0.00571802 max: 0.0279578
Time = 720

diagonal:  Solving for rho, Initial residual = 0, Final residual = 0, No Iterations 0
DILUPBiCGStab:  Solving for Ux, Initial residual = 1.05863e-06, Final residual = 1.05737e-11, No Iterations 1
DILUPBiCGStab:  Solving for Uy, Initial residual = 1.03864e-06, Final residual = 9.98464e-12, No Iterations 1
DILUPBiCGStab:  Solving for h, Initial residual = 1.18584e-05, Final residual = 8.01828e-11, No Iterations 1
DICPCG:  Solving for p_rgh, Initial residual = 1.53621e-06, Final residual = 9.2103e-09, No Iterations 18
diagonal:  Solving for rho, Initial residual = 0, Final residual = 0, No Iterations 0
time step continuity errors : sum local = 1.7883e-12, global = 1.57414e-12, cumulative = -1.43035e-07
DICPCG:  Solving for p_rgh, Initial residual = 3.23542e-08, Final residual = 9.68613e-09, No Iterations 10
diagonal:  Solving for rho, Initial residual = 0, Final residual = 0, No Iterations 0
time step continuity errors : sum local = 5.8779e-13, global = 3.60102e-14, cumulative = -1.43035e-07
DILUPBiCGStab:  Solving for epsilon, Initial residual = 1.00132e-06, Final residual = 1.42706e-11, No Iterations 1
DILUPBiCGStab:  Solving for k, Initial residual = 1.64966e-06, Final residual = 2.43219e-11, No Iterations 1
ExecutionTime = 2.21 s  ClockTime = 2 s

End

